version 2
run LCD-0-20170430-15:38:46-6748
attr F spr
attr a 1.8
attr configname LCD
attr datetime 20170430-15:38:46
attr experiment LCD
attr inifile omnetpp.ini
attr iterationvars "$net=tree8, $lambda=5, $a=1.8, $rep=0, $window=60, $variance=0.05, $mytime=1800, $F=spr, $ttl=1000"
attr iterationvars2 "$net=tree8, $lambda=5, $a=1.8, $rep=0, $window=60, $variance=0.05, $mytime=1800, $F=spr, $ttl=1000, $repetition=0"
attr lambda 5
attr measurement "$net=tree8, $lambda=5, $a=1.8, $rep=0, $window=60, $variance=0.05, $mytime=1800, $F=spr, $ttl=1000"
attr mytime 1800
attr net tree8
attr network networks.${net=tree8}_network
attr processid 6748
attr rep 0
attr repetition 0
attr replication #0
attr resultdir results
attr runnumber 0
attr seedset 0
attr ttl 1000
attr variance 0.05
attr window 60

scalar . 	a 	1.8
scalar . 	lambda 	5
scalar . 	mytime 	1800
scalar . 	rep 	0
scalar . 	ttl 	1000
scalar . 	variance 	0.05
scalar . 	window 	60
scalar tree8_network.content_distribution 	repo-0 	0
scalar tree8_network.content_distribution 	client-0 	31
scalar tree8_network.content_distribution 	client-1 	32
scalar tree8_network.content_distribution 	client-2 	33
scalar tree8_network.content_distribution 	client-3 	34
scalar tree8_network.content_distribution 	client-4 	35
scalar tree8_network.content_distribution 	client-5 	36
scalar tree8_network.content_distribution 	client-6 	37
scalar tree8_network.content_distribution 	client-7 	38
scalar tree8_network.content_distribution 	client-8 	39
scalar tree8_network.content_distribution 	client-9 	40
scalar tree8_network.content_distribution 	client-10 	41
scalar tree8_network.content_distribution 	client-11 	42
scalar tree8_network.content_distribution 	client-12 	43
scalar tree8_network.content_distribution 	client-13 	44
scalar tree8_network.content_distribution 	client-14 	45
scalar tree8_network.content_distribution 	client-15 	46
scalar tree8_network.content_distribution 	client-16 	47
scalar tree8_network.content_distribution 	client-17 	48
scalar tree8_network.content_distribution 	client-18 	49
scalar tree8_network.content_distribution 	client-19 	50
scalar tree8_network.content_distribution 	client-20 	51
scalar tree8_network.content_distribution 	client-21 	52
scalar tree8_network.content_distribution 	client-22 	53
scalar tree8_network.content_distribution 	client-23 	54
scalar tree8_network.content_distribution 	client-24 	55
scalar tree8_network.content_distribution 	client-25 	56
scalar tree8_network.content_distribution 	client-26 	57
scalar tree8_network.content_distribution 	client-27 	58
scalar tree8_network.content_distribution 	client-28 	59
scalar tree8_network.content_distribution 	client-29 	60
scalar tree8_network.content_distribution 	client-30 	61
scalar tree8_network.content_distribution 	client-31 	62
scalar tree8_network.content_distribution 	client-32 	63
scalar tree8_network.content_distribution 	client-33 	64
scalar tree8_network.content_distribution 	client-34 	65
scalar tree8_network.content_distribution 	client-35 	66
scalar tree8_network.content_distribution 	client-36 	67
scalar tree8_network.content_distribution 	client-37 	68
scalar tree8_network.content_distribution 	client-38 	69
scalar tree8_network.content_distribution 	client-39 	70
scalar tree8_network.content_distribution 	client-40 	71
scalar tree8_network.content_distribution 	client-41 	72
scalar tree8_network.content_distribution 	client-42 	73
scalar tree8_network.content_distribution 	client-43 	74
scalar tree8_network.content_distribution 	client-44 	75
scalar tree8_network.content_distribution 	client-45 	76
scalar tree8_network.content_distribution 	client-46 	77
scalar tree8_network.content_distribution 	client-47 	78
scalar tree8_network.content_distribution 	client-48 	79
scalar tree8_network.content_distribution 	client-49 	80
scalar tree8_network.content_distribution 	client-50 	81
scalar tree8_network.content_distribution 	client-51 	82
scalar tree8_network.content_distribution 	client-52 	83
scalar tree8_network.content_distribution 	client-53 	84
scalar tree8_network.content_distribution 	client-54 	85
scalar tree8_network.content_distribution 	client-55 	86
scalar tree8_network.content_distribution 	client-56 	87
scalar tree8_network.content_distribution 	client-57 	88
scalar tree8_network.content_distribution 	client-58 	89
scalar tree8_network.content_distribution 	client-59 	90
scalar tree8_network.content_distribution 	client-60 	91
scalar tree8_network.content_distribution 	client-61 	92
scalar tree8_network.content_distribution 	client-62 	93
scalar tree8_network.content_distribution 	client-63 	94
scalar tree8_network.content_distribution 	client-64 	95
scalar tree8_network.content_distribution 	client-65 	96
scalar tree8_network.content_distribution 	client-66 	97
scalar tree8_network.content_distribution 	client-67 	98
scalar tree8_network.content_distribution 	client-68 	99
scalar tree8_network.content_distribution 	client-69 	100
scalar tree8_network.content_distribution 	client-70 	101
scalar tree8_network.content_distribution 	client-71 	102
scalar tree8_network.content_distribution 	client-72 	103
scalar tree8_network.content_distribution 	client-73 	104
scalar tree8_network.content_distribution 	client-74 	105
scalar tree8_network.content_distribution 	client-75 	106
scalar tree8_network.content_distribution 	client-76 	107
scalar tree8_network.content_distribution 	client-77 	108
scalar tree8_network.content_distribution 	client-78 	109
scalar tree8_network.content_distribution 	client-79 	110
scalar tree8_network.content_distribution 	client-80 	111
scalar tree8_network.content_distribution 	client-81 	112
scalar tree8_network.content_distribution 	client-82 	113
scalar tree8_network.content_distribution 	client-83 	114
scalar tree8_network.content_distribution 	client-84 	115
scalar tree8_network.content_distribution 	client-85 	116
scalar tree8_network.content_distribution 	client-86 	117
scalar tree8_network.content_distribution 	client-87 	118
scalar tree8_network.content_distribution 	client-88 	119
scalar tree8_network.content_distribution 	client-89 	120
scalar tree8_network.content_distribution 	client-90 	121
scalar tree8_network.content_distribution 	client-91 	122
scalar tree8_network.content_distribution 	client-92 	123
scalar tree8_network.content_distribution 	client-93 	124
scalar tree8_network.content_distribution 	client-94 	125
scalar tree8_network.content_distribution 	client-95 	126
scalar tree8_network.content_distribution 	client-96 	127
scalar tree8_network.content_distribution 	client-97 	128
scalar tree8_network.content_distribution 	client-98 	129
scalar tree8_network.content_distribution 	client-99 	130
scalar tree8_network.content_distribution 	client-100 	131
scalar tree8_network.content_distribution 	client-101 	132
scalar tree8_network.content_distribution 	client-102 	133
scalar tree8_network.content_distribution 	client-103 	134
scalar tree8_network.content_distribution 	client-104 	135
scalar tree8_network.content_distribution 	client-105 	136
scalar tree8_network.content_distribution 	client-106 	137
scalar tree8_network.content_distribution 	client-107 	138
scalar tree8_network.content_distribution 	client-108 	139
scalar tree8_network.content_distribution 	client-109 	140
scalar tree8_network.content_distribution 	client-110 	141
scalar tree8_network.content_distribution 	client-111 	142
scalar tree8_network.content_distribution 	client-112 	143
scalar tree8_network.content_distribution 	client-113 	144
scalar tree8_network.content_distribution 	client-114 	145
scalar tree8_network.content_distribution 	client-115 	146
scalar tree8_network.content_distribution 	client-116 	147
scalar tree8_network.content_distribution 	client-117 	148
scalar tree8_network.content_distribution 	client-118 	149
scalar tree8_network.content_distribution 	client-119 	150
scalar tree8_network.content_distribution 	client-120 	151
scalar tree8_network.content_distribution 	client-121 	152
scalar tree8_network.content_distribution 	client-122 	153
scalar tree8_network.content_distribution 	client-123 	154
scalar tree8_network.content_distribution 	client-124 	155
scalar tree8_network.content_distribution 	repo-0_card 	10000
scalar tree8_network.content_distribution 	repo-0_price 	0
scalar tree8_network.statistics 	stabilization_time 	0
scalar tree8_network.statistics 	p_hit 	0.48382630035654
scalar tree8_network.statistics 	interests 	14679.775641026
scalar tree8_network.statistics 	data 	7462.1153846154
scalar tree8_network.statistics 	hdistance 	1.0499832663924
scalar tree8_network.statistics 	avg_time 	0.00207073706
scalar tree8_network.statistics 	downloads 	1122522
scalar tree8_network.statistics 	total_cost 	0
scalar tree8_network.statistics 	total_replicas 	10000
scalar tree8_network.statistics 	inner_hit 	0.98704969702153
scalar tree8_network.node[0].core_layer 	interests[0] 	17348
scalar tree8_network.node[0].core_layer 	repo_load[0] 	14537
scalar tree8_network.node[0].core_layer 	data[0] 	0
scalar tree8_network.node[0].core_layer 	repo_int[0] 	14537
scalar tree8_network.node[0].content_store 	p_hit[0] 	0.16203596956421
scalar tree8_network.node[0].content_store 	hits[0] 	2811
scalar tree8_network.node[0].content_store 	misses[0] 	14537
scalar tree8_network.node[0].content_store 	decision_yes[0] 	14537
scalar tree8_network.node[0].content_store 	decision_no[0] 	0
scalar tree8_network.node[0].content_store 	decision_ratio[0] 	1
scalar tree8_network.node[1].core_layer 	interests[1] 	4809
scalar tree8_network.node[1].core_layer 	data[1] 	3448
scalar tree8_network.node[1].content_store 	p_hit[1] 	0.28301102100229
scalar tree8_network.node[1].content_store 	hits[1] 	1361
scalar tree8_network.node[1].content_store 	misses[1] 	3448
scalar tree8_network.node[1].content_store 	decision_yes[1] 	557
scalar tree8_network.node[1].content_store 	decision_no[1] 	2891
scalar tree8_network.node[1].content_store 	decision_ratio[1] 	0.16154292343387
scalar tree8_network.node[2].core_layer 	interests[2] 	4947
scalar tree8_network.node[2].core_layer 	data[2] 	3537
scalar tree8_network.node[2].content_store 	p_hit[2] 	0.28502122498484
scalar tree8_network.node[2].content_store 	hits[2] 	1410
scalar tree8_network.node[2].content_store 	misses[2] 	3537
scalar tree8_network.node[2].content_store 	decision_yes[2] 	566
scalar tree8_network.node[2].content_store 	decision_no[2] 	2971
scalar tree8_network.node[2].content_store 	decision_ratio[2] 	0.16002261803789
scalar tree8_network.node[3].core_layer 	interests[3] 	4867
scalar tree8_network.node[3].core_layer 	data[3] 	3493
scalar tree8_network.node[3].content_store 	p_hit[3] 	0.2823094308609
scalar tree8_network.node[3].content_store 	hits[3] 	1374
scalar tree8_network.node[3].content_store 	misses[3] 	3493
scalar tree8_network.node[3].content_store 	decision_yes[3] 	594
scalar tree8_network.node[3].content_store 	decision_no[3] 	2899
scalar tree8_network.node[3].content_store 	decision_ratio[3] 	0.17005439450329
scalar tree8_network.node[4].core_layer 	interests[4] 	4886
scalar tree8_network.node[4].core_layer 	data[4] 	3503
scalar tree8_network.node[4].content_store 	p_hit[4] 	0.28305362259517
scalar tree8_network.node[4].content_store 	hits[4] 	1383
scalar tree8_network.node[4].content_store 	misses[4] 	3503
scalar tree8_network.node[4].content_store 	decision_yes[4] 	552
scalar tree8_network.node[4].content_store 	decision_no[4] 	2951
scalar tree8_network.node[4].content_store 	decision_ratio[4] 	0.1575792178133
scalar tree8_network.node[5].core_layer 	interests[5] 	4711
scalar tree8_network.node[5].core_layer 	data[5] 	3367
scalar tree8_network.node[5].content_store 	p_hit[5] 	0.2852897473997
scalar tree8_network.node[5].content_store 	hits[5] 	1344
scalar tree8_network.node[5].content_store 	misses[5] 	3367
scalar tree8_network.node[5].content_store 	decision_yes[5] 	542
scalar tree8_network.node[5].content_store 	decision_no[5] 	2825
scalar tree8_network.node[5].content_store 	decision_ratio[5] 	0.16097416097416
scalar tree8_network.node[6].core_layer 	interests[6] 	44595
scalar tree8_network.node[6].core_layer 	data[6] 	915
scalar tree8_network.node[6].content_store 	p_hit[6] 	0.97948200470905
scalar tree8_network.node[6].content_store 	hits[6] 	43680
scalar tree8_network.node[6].content_store 	misses[6] 	915
scalar tree8_network.node[6].content_store 	decision_yes[6] 	261
scalar tree8_network.node[6].content_store 	decision_no[6] 	654
scalar tree8_network.node[6].content_store 	decision_ratio[6] 	0.28524590163934
scalar tree8_network.node[7].core_layer 	interests[7] 	45023
scalar tree8_network.node[7].core_layer 	data[7] 	995
scalar tree8_network.node[7].content_store 	p_hit[7] 	0.97790018435022
scalar tree8_network.node[7].content_store 	hits[7] 	44028
scalar tree8_network.node[7].content_store 	misses[7] 	995
scalar tree8_network.node[7].content_store 	decision_yes[7] 	268
scalar tree8_network.node[7].content_store 	decision_no[7] 	727
scalar tree8_network.node[7].content_store 	decision_ratio[7] 	0.26934673366834
scalar tree8_network.node[8].core_layer 	interests[8] 	44864
scalar tree8_network.node[8].core_layer 	data[8] 	978
scalar tree8_network.node[8].content_store 	p_hit[8] 	0.97820078459344
scalar tree8_network.node[8].content_store 	hits[8] 	43886
scalar tree8_network.node[8].content_store 	misses[8] 	978
scalar tree8_network.node[8].content_store 	decision_yes[8] 	292
scalar tree8_network.node[8].content_store 	decision_no[8] 	686
scalar tree8_network.node[8].content_store 	decision_ratio[8] 	0.29856850715746
scalar tree8_network.node[9].core_layer 	interests[9] 	44866
scalar tree8_network.node[9].core_layer 	data[9] 	943
scalar tree8_network.node[9].content_store 	p_hit[9] 	0.97898185708554
scalar tree8_network.node[9].content_store 	hits[9] 	43923
scalar tree8_network.node[9].content_store 	misses[9] 	943
scalar tree8_network.node[9].content_store 	decision_yes[9] 	256
scalar tree8_network.node[9].content_store 	decision_no[9] 	687
scalar tree8_network.node[9].content_store 	decision_ratio[9] 	0.27147401908802
scalar tree8_network.node[10].core_layer 	interests[10] 	45093
scalar tree8_network.node[10].core_layer 	data[10] 	978
scalar tree8_network.node[10].content_store 	p_hit[10] 	0.97831148958818
scalar tree8_network.node[10].content_store 	hits[10] 	44115
scalar tree8_network.node[10].content_store 	misses[10] 	978
scalar tree8_network.node[10].content_store 	decision_yes[10] 	284
scalar tree8_network.node[10].content_store 	decision_no[10] 	694
scalar tree8_network.node[10].content_store 	decision_ratio[10] 	0.29038854805726
scalar tree8_network.node[11].core_layer 	interests[11] 	44722
scalar tree8_network.node[11].core_layer 	data[11] 	990
scalar tree8_network.node[11].content_store 	p_hit[11] 	0.97786324404096
scalar tree8_network.node[11].content_store 	hits[11] 	43732
scalar tree8_network.node[11].content_store 	misses[11] 	990
scalar tree8_network.node[11].content_store 	decision_yes[11] 	282
scalar tree8_network.node[11].content_store 	decision_no[11] 	708
scalar tree8_network.node[11].content_store 	decision_ratio[11] 	0.28484848484848
scalar tree8_network.node[12].core_layer 	interests[12] 	45088
scalar tree8_network.node[12].core_layer 	data[12] 	982
scalar tree8_network.node[12].content_store 	p_hit[12] 	0.97822036905607
scalar tree8_network.node[12].content_store 	hits[12] 	44106
scalar tree8_network.node[12].content_store 	misses[12] 	982
scalar tree8_network.node[12].content_store 	decision_yes[12] 	281
scalar tree8_network.node[12].content_store 	decision_no[12] 	701
scalar tree8_network.node[12].content_store 	decision_ratio[12] 	0.28615071283096
scalar tree8_network.node[13].core_layer 	interests[13] 	44893
scalar tree8_network.node[13].core_layer 	data[13] 	949
scalar tree8_network.node[13].content_store 	p_hit[13] 	0.97886084690264
scalar tree8_network.node[13].content_store 	hits[13] 	43944
scalar tree8_network.node[13].content_store 	misses[13] 	949
scalar tree8_network.node[13].content_store 	decision_yes[13] 	277
scalar tree8_network.node[13].content_store 	decision_no[13] 	672
scalar tree8_network.node[13].content_store 	decision_ratio[13] 	0.29188619599579
scalar tree8_network.node[14].core_layer 	interests[14] 	44680
scalar tree8_network.node[14].core_layer 	data[14] 	978
scalar tree8_network.node[14].content_store 	p_hit[14] 	0.97811101163832
scalar tree8_network.node[14].content_store 	hits[14] 	43702
scalar tree8_network.node[14].content_store 	misses[14] 	978
scalar tree8_network.node[14].content_store 	decision_yes[14] 	280
scalar tree8_network.node[14].content_store 	decision_no[14] 	698
scalar tree8_network.node[14].content_store 	decision_ratio[14] 	0.28629856850716
scalar tree8_network.node[15].core_layer 	interests[15] 	44908
scalar tree8_network.node[15].core_layer 	data[15] 	1048
scalar tree8_network.node[15].content_store 	p_hit[15] 	0.97666340073038
scalar tree8_network.node[15].content_store 	hits[15] 	43860
scalar tree8_network.node[15].content_store 	misses[15] 	1048
scalar tree8_network.node[15].content_store 	decision_yes[15] 	290
scalar tree8_network.node[15].content_store 	decision_no[15] 	758
scalar tree8_network.node[15].content_store 	decision_ratio[15] 	0.27671755725191
scalar tree8_network.node[16].core_layer 	interests[16] 	45146
scalar tree8_network.node[16].core_layer 	data[16] 	908
scalar tree8_network.node[16].content_store 	p_hit[16] 	0.97988747618837
scalar tree8_network.node[16].content_store 	hits[16] 	44238
scalar tree8_network.node[16].content_store 	misses[16] 	908
scalar tree8_network.node[16].content_store 	decision_yes[16] 	263
scalar tree8_network.node[16].content_store 	decision_no[16] 	645
scalar tree8_network.node[16].content_store 	decision_ratio[16] 	0.28964757709251
scalar tree8_network.node[17].core_layer 	interests[17] 	45177
scalar tree8_network.node[17].core_layer 	data[17] 	982
scalar tree8_network.node[17].content_store 	p_hit[17] 	0.97826327556057
scalar tree8_network.node[17].content_store 	hits[17] 	44195
scalar tree8_network.node[17].content_store 	misses[17] 	982
scalar tree8_network.node[17].content_store 	decision_yes[17] 	264
scalar tree8_network.node[17].content_store 	decision_no[17] 	718
scalar tree8_network.node[17].content_store 	decision_ratio[17] 	0.26883910386965
scalar tree8_network.node[18].core_layer 	interests[18] 	44371
scalar tree8_network.node[18].core_layer 	data[18] 	989
scalar tree8_network.node[18].content_store 	p_hit[18] 	0.97771066687701
scalar tree8_network.node[18].content_store 	hits[18] 	43382
scalar tree8_network.node[18].content_store 	misses[18] 	989
scalar tree8_network.node[18].content_store 	decision_yes[18] 	279
scalar tree8_network.node[18].content_store 	decision_no[18] 	710
scalar tree8_network.node[18].content_store 	decision_ratio[18] 	0.28210313447927
scalar tree8_network.node[19].core_layer 	interests[19] 	44888
scalar tree8_network.node[19].core_layer 	data[19] 	1021
scalar tree8_network.node[19].content_store 	p_hit[19] 	0.97725450008911
scalar tree8_network.node[19].content_store 	hits[19] 	43867
scalar tree8_network.node[19].content_store 	misses[19] 	1021
scalar tree8_network.node[19].content_store 	decision_yes[19] 	297
scalar tree8_network.node[19].content_store 	decision_no[19] 	724
scalar tree8_network.node[19].content_store 	decision_ratio[19] 	0.29089128305583
scalar tree8_network.node[20].core_layer 	interests[20] 	44922
scalar tree8_network.node[20].core_layer 	data[20] 	967
scalar tree8_network.node[20].content_store 	p_hit[20] 	0.97847379902943
scalar tree8_network.node[20].content_store 	hits[20] 	43955
scalar tree8_network.node[20].content_store 	misses[20] 	967
scalar tree8_network.node[20].content_store 	decision_yes[20] 	271
scalar tree8_network.node[20].content_store 	decision_no[20] 	696
scalar tree8_network.node[20].content_store 	decision_ratio[20] 	0.28024819027921
scalar tree8_network.node[21].core_layer 	interests[21] 	44878
scalar tree8_network.node[21].core_layer 	data[21] 	1003
scalar tree8_network.node[21].content_store 	p_hit[21] 	0.97765051918535
scalar tree8_network.node[21].content_store 	hits[21] 	43875
scalar tree8_network.node[21].content_store 	misses[21] 	1003
scalar tree8_network.node[21].content_store 	decision_yes[21] 	288
scalar tree8_network.node[21].content_store 	decision_no[21] 	715
scalar tree8_network.node[21].content_store 	decision_ratio[21] 	0.28713858424726
scalar tree8_network.node[22].core_layer 	interests[22] 	44785
scalar tree8_network.node[22].core_layer 	data[22] 	976
scalar tree8_network.node[22].content_store 	p_hit[22] 	0.97820698894719
scalar tree8_network.node[22].content_store 	hits[22] 	43809
scalar tree8_network.node[22].content_store 	misses[22] 	976
scalar tree8_network.node[22].content_store 	decision_yes[22] 	275
scalar tree8_network.node[22].content_store 	decision_no[22] 	701
scalar tree8_network.node[22].content_store 	decision_ratio[22] 	0.28176229508197
scalar tree8_network.node[23].core_layer 	interests[23] 	45036
scalar tree8_network.node[23].core_layer 	data[23] 	930
scalar tree8_network.node[23].content_store 	p_hit[23] 	0.97934985345057
scalar tree8_network.node[23].content_store 	hits[23] 	44106
scalar tree8_network.node[23].content_store 	misses[23] 	930
scalar tree8_network.node[23].content_store 	decision_yes[23] 	266
scalar tree8_network.node[23].content_store 	decision_no[23] 	664
scalar tree8_network.node[23].content_store 	decision_ratio[23] 	0.28602150537634
scalar tree8_network.node[24].core_layer 	interests[24] 	44913
scalar tree8_network.node[24].core_layer 	data[24] 	1005
scalar tree8_network.node[24].content_store 	p_hit[24] 	0.97762340525015
scalar tree8_network.node[24].content_store 	hits[24] 	43908
scalar tree8_network.node[24].content_store 	misses[24] 	1005
scalar tree8_network.node[24].content_store 	decision_yes[24] 	279
scalar tree8_network.node[24].content_store 	decision_no[24] 	726
scalar tree8_network.node[24].content_store 	decision_ratio[24] 	0.27761194029851
scalar tree8_network.node[25].core_layer 	interests[25] 	44913
scalar tree8_network.node[25].core_layer 	data[25] 	972
scalar tree8_network.node[25].content_store 	p_hit[25] 	0.97835815910761
scalar tree8_network.node[25].content_store 	hits[25] 	43941
scalar tree8_network.node[25].content_store 	misses[25] 	972
scalar tree8_network.node[25].content_store 	decision_yes[25] 	275
scalar tree8_network.node[25].content_store 	decision_no[25] 	697
scalar tree8_network.node[25].content_store 	decision_ratio[25] 	0.28292181069959
scalar tree8_network.node[26].core_layer 	interests[26] 	45211
scalar tree8_network.node[26].core_layer 	data[26] 	927
scalar tree8_network.node[26].content_store 	p_hit[26] 	0.97949614031983
scalar tree8_network.node[26].content_store 	hits[26] 	44284
scalar tree8_network.node[26].content_store 	misses[26] 	927
scalar tree8_network.node[26].content_store 	decision_yes[26] 	271
scalar tree8_network.node[26].content_store 	decision_no[26] 	656
scalar tree8_network.node[26].content_store 	decision_ratio[26] 	0.29234088457389
scalar tree8_network.node[27].core_layer 	interests[27] 	44683
scalar tree8_network.node[27].core_layer 	data[27] 	916
scalar tree8_network.node[27].content_store 	p_hit[27] 	0.97950003356981
scalar tree8_network.node[27].content_store 	hits[27] 	43767
scalar tree8_network.node[27].content_store 	misses[27] 	916
scalar tree8_network.node[27].content_store 	decision_yes[27] 	283
scalar tree8_network.node[27].content_store 	decision_no[27] 	633
scalar tree8_network.node[27].content_store 	decision_ratio[27] 	0.3089519650655
scalar tree8_network.node[28].core_layer 	interests[28] 	44993
scalar tree8_network.node[28].core_layer 	data[28] 	982
scalar tree8_network.node[28].content_store 	p_hit[28] 	0.97817438268175
scalar tree8_network.node[28].content_store 	hits[28] 	44011
scalar tree8_network.node[28].content_store 	misses[28] 	982
scalar tree8_network.node[28].content_store 	decision_yes[28] 	263
scalar tree8_network.node[28].content_store 	decision_no[28] 	719
scalar tree8_network.node[28].content_store 	decision_ratio[28] 	0.26782077393075
scalar tree8_network.node[29].core_layer 	interests[29] 	44952
scalar tree8_network.node[29].core_layer 	data[29] 	938
scalar tree8_network.node[29].content_store 	p_hit[29] 	0.97913329773981
scalar tree8_network.node[29].content_store 	hits[29] 	44014
scalar tree8_network.node[29].content_store 	misses[29] 	938
scalar tree8_network.node[29].content_store 	decision_yes[29] 	252
scalar tree8_network.node[29].content_store 	decision_no[29] 	686
scalar tree8_network.node[29].content_store 	decision_ratio[29] 	0.26865671641791
scalar tree8_network.node[30].core_layer 	interests[30] 	44921
scalar tree8_network.node[30].core_layer 	data[30] 	948
scalar tree8_network.node[30].content_store 	p_hit[30] 	0.9788962845885
scalar tree8_network.node[30].content_store 	hits[30] 	43973
scalar tree8_network.node[30].content_store 	misses[30] 	948
scalar tree8_network.node[30].content_store 	decision_yes[30] 	275
scalar tree8_network.node[30].content_store 	decision_no[30] 	673
scalar tree8_network.node[30].content_store 	decision_ratio[30] 	0.29008438818565
scalar tree8_network.node[31].core_layer 	interests[31] 	8989
scalar tree8_network.node[31].core_layer 	data[31] 	8965
scalar tree8_network.node[31].content_store 	p_hit[31] 	0
scalar tree8_network.node[31].content_store 	hits[31] 	0
scalar tree8_network.node[31].content_store 	misses[31] 	8989
scalar tree8_network.node[31].content_store 	decision_yes[31] 	0
scalar tree8_network.node[31].content_store 	decision_no[31] 	8965
scalar tree8_network.node[31].content_store 	decision_ratio[31] 	0
scalar tree8_network.node[32].core_layer 	interests[32] 	8895
scalar tree8_network.node[32].core_layer 	data[32] 	8871
scalar tree8_network.node[32].content_store 	p_hit[32] 	0
scalar tree8_network.node[32].content_store 	hits[32] 	0
scalar tree8_network.node[32].content_store 	misses[32] 	8895
scalar tree8_network.node[32].content_store 	decision_yes[32] 	0
scalar tree8_network.node[32].content_store 	decision_no[32] 	8871
scalar tree8_network.node[32].content_store 	decision_ratio[32] 	0
scalar tree8_network.node[33].core_layer 	interests[33] 	8957
scalar tree8_network.node[33].core_layer 	data[33] 	8935
scalar tree8_network.node[33].content_store 	p_hit[33] 	0
scalar tree8_network.node[33].content_store 	hits[33] 	0
scalar tree8_network.node[33].content_store 	misses[33] 	8957
scalar tree8_network.node[33].content_store 	decision_yes[33] 	0
scalar tree8_network.node[33].content_store 	decision_no[33] 	8935
scalar tree8_network.node[33].content_store 	decision_ratio[33] 	0
scalar tree8_network.node[34].core_layer 	interests[34] 	8937
scalar tree8_network.node[34].core_layer 	data[34] 	8917
scalar tree8_network.node[34].content_store 	p_hit[34] 	0
scalar tree8_network.node[34].content_store 	hits[34] 	0
scalar tree8_network.node[34].content_store 	misses[34] 	8937
scalar tree8_network.node[34].content_store 	decision_yes[34] 	0
scalar tree8_network.node[34].content_store 	decision_no[34] 	8917
scalar tree8_network.node[34].content_store 	decision_ratio[34] 	0
scalar tree8_network.node[35].core_layer 	interests[35] 	8935
scalar tree8_network.node[35].core_layer 	data[35] 	8907
scalar tree8_network.node[35].content_store 	p_hit[35] 	0
scalar tree8_network.node[35].content_store 	hits[35] 	0
scalar tree8_network.node[35].content_store 	misses[35] 	8935
scalar tree8_network.node[35].content_store 	decision_yes[35] 	0
scalar tree8_network.node[35].content_store 	decision_no[35] 	8907
scalar tree8_network.node[35].content_store 	decision_ratio[35] 	0
scalar tree8_network.node[36].core_layer 	interests[36] 	9153
scalar tree8_network.node[36].core_layer 	data[36] 	9118
scalar tree8_network.node[36].content_store 	p_hit[36] 	0
scalar tree8_network.node[36].content_store 	hits[36] 	0
scalar tree8_network.node[36].content_store 	misses[36] 	9153
scalar tree8_network.node[36].content_store 	decision_yes[36] 	0
scalar tree8_network.node[36].content_store 	decision_no[36] 	9118
scalar tree8_network.node[36].content_store 	decision_ratio[36] 	0
scalar tree8_network.node[37].core_layer 	interests[37] 	8973
scalar tree8_network.node[37].core_layer 	data[37] 	8948
scalar tree8_network.node[37].content_store 	p_hit[37] 	0
scalar tree8_network.node[37].content_store 	hits[37] 	0
scalar tree8_network.node[37].content_store 	misses[37] 	8973
scalar tree8_network.node[37].content_store 	decision_yes[37] 	0
scalar tree8_network.node[37].content_store 	decision_no[37] 	8948
scalar tree8_network.node[37].content_store 	decision_ratio[37] 	0
scalar tree8_network.node[38].core_layer 	interests[38] 	9016
scalar tree8_network.node[38].core_layer 	data[38] 	8991
scalar tree8_network.node[38].content_store 	p_hit[38] 	0
scalar tree8_network.node[38].content_store 	hits[38] 	0
scalar tree8_network.node[38].content_store 	misses[38] 	9016
scalar tree8_network.node[38].content_store 	decision_yes[38] 	0
scalar tree8_network.node[38].content_store 	decision_no[38] 	8991
scalar tree8_network.node[38].content_store 	decision_ratio[38] 	0
scalar tree8_network.node[39].core_layer 	interests[39] 	9046
scalar tree8_network.node[39].core_layer 	data[39] 	9023
scalar tree8_network.node[39].content_store 	p_hit[39] 	0
scalar tree8_network.node[39].content_store 	hits[39] 	0
scalar tree8_network.node[39].content_store 	misses[39] 	9046
scalar tree8_network.node[39].content_store 	decision_yes[39] 	0
scalar tree8_network.node[39].content_store 	decision_no[39] 	9023
scalar tree8_network.node[39].content_store 	decision_ratio[39] 	0
scalar tree8_network.node[40].core_layer 	interests[40] 	8976
scalar tree8_network.node[40].core_layer 	data[40] 	8943
scalar tree8_network.node[40].content_store 	p_hit[40] 	0
scalar tree8_network.node[40].content_store 	hits[40] 	0
scalar tree8_network.node[40].content_store 	misses[40] 	8976
scalar tree8_network.node[40].content_store 	decision_yes[40] 	0
scalar tree8_network.node[40].content_store 	decision_no[40] 	8943
scalar tree8_network.node[40].content_store 	decision_ratio[40] 	0
scalar tree8_network.node[41].core_layer 	interests[41] 	9126
scalar tree8_network.node[41].core_layer 	data[41] 	9095
scalar tree8_network.node[41].content_store 	p_hit[41] 	0
scalar tree8_network.node[41].content_store 	hits[41] 	0
scalar tree8_network.node[41].content_store 	misses[41] 	9126
scalar tree8_network.node[41].content_store 	decision_yes[41] 	0
scalar tree8_network.node[41].content_store 	decision_no[41] 	9095
scalar tree8_network.node[41].content_store 	decision_ratio[41] 	0
scalar tree8_network.node[42].core_layer 	interests[42] 	8833
scalar tree8_network.node[42].core_layer 	data[42] 	8802
scalar tree8_network.node[42].content_store 	p_hit[42] 	0
scalar tree8_network.node[42].content_store 	hits[42] 	0
scalar tree8_network.node[42].content_store 	misses[42] 	8833
scalar tree8_network.node[42].content_store 	decision_yes[42] 	0
scalar tree8_network.node[42].content_store 	decision_no[42] 	8802
scalar tree8_network.node[42].content_store 	decision_ratio[42] 	0
scalar tree8_network.node[43].core_layer 	interests[43] 	8940
scalar tree8_network.node[43].core_layer 	data[43] 	8918
scalar tree8_network.node[43].content_store 	p_hit[43] 	0
scalar tree8_network.node[43].content_store 	hits[43] 	0
scalar tree8_network.node[43].content_store 	misses[43] 	8940
scalar tree8_network.node[43].content_store 	decision_yes[43] 	0
scalar tree8_network.node[43].content_store 	decision_no[43] 	8918
scalar tree8_network.node[43].content_store 	decision_ratio[43] 	0
scalar tree8_network.node[44].core_layer 	interests[44] 	9060
scalar tree8_network.node[44].core_layer 	data[44] 	9038
scalar tree8_network.node[44].content_store 	p_hit[44] 	0
scalar tree8_network.node[44].content_store 	hits[44] 	0
scalar tree8_network.node[44].content_store 	misses[44] 	9060
scalar tree8_network.node[44].content_store 	decision_yes[44] 	0
scalar tree8_network.node[44].content_store 	decision_no[44] 	9038
scalar tree8_network.node[44].content_store 	decision_ratio[44] 	0
scalar tree8_network.node[45].core_layer 	interests[45] 	9039
scalar tree8_network.node[45].core_layer 	data[45] 	9011
scalar tree8_network.node[45].content_store 	p_hit[45] 	0
scalar tree8_network.node[45].content_store 	hits[45] 	0
scalar tree8_network.node[45].content_store 	misses[45] 	9039
scalar tree8_network.node[45].content_store 	decision_yes[45] 	0
scalar tree8_network.node[45].content_store 	decision_no[45] 	9011
scalar tree8_network.node[45].content_store 	decision_ratio[45] 	0
scalar tree8_network.node[46].core_layer 	interests[46] 	9038
scalar tree8_network.node[46].core_layer 	data[46] 	9015
scalar tree8_network.node[46].content_store 	p_hit[46] 	0
scalar tree8_network.node[46].content_store 	hits[46] 	0
scalar tree8_network.node[46].content_store 	misses[46] 	9038
scalar tree8_network.node[46].content_store 	decision_yes[46] 	0
scalar tree8_network.node[46].content_store 	decision_no[46] 	9015
scalar tree8_network.node[46].content_store 	decision_ratio[46] 	0
scalar tree8_network.node[47].core_layer 	interests[47] 	8991
scalar tree8_network.node[47].core_layer 	data[47] 	8967
scalar tree8_network.node[47].content_store 	p_hit[47] 	0
scalar tree8_network.node[47].content_store 	hits[47] 	0
scalar tree8_network.node[47].content_store 	misses[47] 	8991
scalar tree8_network.node[47].content_store 	decision_yes[47] 	0
scalar tree8_network.node[47].content_store 	decision_no[47] 	8967
scalar tree8_network.node[47].content_store 	decision_ratio[47] 	0
scalar tree8_network.node[48].core_layer 	interests[48] 	9067
scalar tree8_network.node[48].core_layer 	data[48] 	9042
scalar tree8_network.node[48].content_store 	p_hit[48] 	0
scalar tree8_network.node[48].content_store 	hits[48] 	0
scalar tree8_network.node[48].content_store 	misses[48] 	9067
scalar tree8_network.node[48].content_store 	decision_yes[48] 	0
scalar tree8_network.node[48].content_store 	decision_no[48] 	9042
scalar tree8_network.node[48].content_store 	decision_ratio[48] 	0
scalar tree8_network.node[49].core_layer 	interests[49] 	8841
scalar tree8_network.node[49].core_layer 	data[49] 	8807
scalar tree8_network.node[49].content_store 	p_hit[49] 	0
scalar tree8_network.node[49].content_store 	hits[49] 	0
scalar tree8_network.node[49].content_store 	misses[49] 	8841
scalar tree8_network.node[49].content_store 	decision_yes[49] 	0
scalar tree8_network.node[49].content_store 	decision_no[49] 	8807
scalar tree8_network.node[49].content_store 	decision_ratio[49] 	0
scalar tree8_network.node[50].core_layer 	interests[50] 	9070
scalar tree8_network.node[50].core_layer 	data[50] 	9035
scalar tree8_network.node[50].content_store 	p_hit[50] 	0
scalar tree8_network.node[50].content_store 	hits[50] 	0
scalar tree8_network.node[50].content_store 	misses[50] 	9070
scalar tree8_network.node[50].content_store 	decision_yes[50] 	0
scalar tree8_network.node[50].content_store 	decision_no[50] 	9035
scalar tree8_network.node[50].content_store 	decision_ratio[50] 	0
scalar tree8_network.node[51].core_layer 	interests[51] 	9020
scalar tree8_network.node[51].core_layer 	data[51] 	8987
scalar tree8_network.node[51].content_store 	p_hit[51] 	0
scalar tree8_network.node[51].content_store 	hits[51] 	0
scalar tree8_network.node[51].content_store 	misses[51] 	9020
scalar tree8_network.node[51].content_store 	decision_yes[51] 	0
scalar tree8_network.node[51].content_store 	decision_no[51] 	8987
scalar tree8_network.node[51].content_store 	decision_ratio[51] 	0
scalar tree8_network.node[52].core_layer 	interests[52] 	8993
scalar tree8_network.node[52].core_layer 	data[52] 	8963
scalar tree8_network.node[52].content_store 	p_hit[52] 	0
scalar tree8_network.node[52].content_store 	hits[52] 	0
scalar tree8_network.node[52].content_store 	misses[52] 	8993
scalar tree8_network.node[52].content_store 	decision_yes[52] 	0
scalar tree8_network.node[52].content_store 	decision_no[52] 	8963
scalar tree8_network.node[52].content_store 	decision_ratio[52] 	0
scalar tree8_network.node[53].core_layer 	interests[53] 	9020
scalar tree8_network.node[53].core_layer 	data[53] 	8995
scalar tree8_network.node[53].content_store 	p_hit[53] 	0
scalar tree8_network.node[53].content_store 	hits[53] 	0
scalar tree8_network.node[53].content_store 	misses[53] 	9020
scalar tree8_network.node[53].content_store 	decision_yes[53] 	0
scalar tree8_network.node[53].content_store 	decision_no[53] 	8995
scalar tree8_network.node[53].content_store 	decision_ratio[53] 	0
scalar tree8_network.node[54].core_layer 	interests[54] 	9101
scalar tree8_network.node[54].core_layer 	data[54] 	9073
scalar tree8_network.node[54].content_store 	p_hit[54] 	0
scalar tree8_network.node[54].content_store 	hits[54] 	0
scalar tree8_network.node[54].content_store 	misses[54] 	9101
scalar tree8_network.node[54].content_store 	decision_yes[54] 	0
scalar tree8_network.node[54].content_store 	decision_no[54] 	9073
scalar tree8_network.node[54].content_store 	decision_ratio[54] 	0
scalar tree8_network.node[55].core_layer 	interests[55] 	9103
scalar tree8_network.node[55].core_layer 	data[55] 	9075
scalar tree8_network.node[55].content_store 	p_hit[55] 	0
scalar tree8_network.node[55].content_store 	hits[55] 	0
scalar tree8_network.node[55].content_store 	misses[55] 	9103
scalar tree8_network.node[55].content_store 	decision_yes[55] 	0
scalar tree8_network.node[55].content_store 	decision_no[55] 	9075
scalar tree8_network.node[55].content_store 	decision_ratio[55] 	0
scalar tree8_network.node[56].core_layer 	interests[56] 	9130
scalar tree8_network.node[56].core_layer 	data[56] 	9105
scalar tree8_network.node[56].content_store 	p_hit[56] 	0
scalar tree8_network.node[56].content_store 	hits[56] 	0
scalar tree8_network.node[56].content_store 	misses[56] 	9130
scalar tree8_network.node[56].content_store 	decision_yes[56] 	0
scalar tree8_network.node[56].content_store 	decision_no[56] 	9105
scalar tree8_network.node[56].content_store 	decision_ratio[56] 	0
scalar tree8_network.node[57].core_layer 	interests[57] 	8858
scalar tree8_network.node[57].core_layer 	data[57] 	8840
scalar tree8_network.node[57].content_store 	p_hit[57] 	0
scalar tree8_network.node[57].content_store 	hits[57] 	0
scalar tree8_network.node[57].content_store 	misses[57] 	8858
scalar tree8_network.node[57].content_store 	decision_yes[57] 	0
scalar tree8_network.node[57].content_store 	decision_no[57] 	8840
scalar tree8_network.node[57].content_store 	decision_ratio[57] 	0
scalar tree8_network.node[58].core_layer 	interests[58] 	8993
scalar tree8_network.node[58].core_layer 	data[58] 	8964
scalar tree8_network.node[58].content_store 	p_hit[58] 	0
scalar tree8_network.node[58].content_store 	hits[58] 	0
scalar tree8_network.node[58].content_store 	misses[58] 	8993
scalar tree8_network.node[58].content_store 	decision_yes[58] 	0
scalar tree8_network.node[58].content_store 	decision_no[58] 	8964
scalar tree8_network.node[58].content_store 	decision_ratio[58] 	0
scalar tree8_network.node[59].core_layer 	interests[59] 	9049
scalar tree8_network.node[59].core_layer 	data[59] 	9007
scalar tree8_network.node[59].content_store 	p_hit[59] 	0
scalar tree8_network.node[59].content_store 	hits[59] 	0
scalar tree8_network.node[59].content_store 	misses[59] 	9049
scalar tree8_network.node[59].content_store 	decision_yes[59] 	0
scalar tree8_network.node[59].content_store 	decision_no[59] 	9007
scalar tree8_network.node[59].content_store 	decision_ratio[59] 	0
scalar tree8_network.node[60].core_layer 	interests[60] 	8835
scalar tree8_network.node[60].core_layer 	data[60] 	8806
scalar tree8_network.node[60].content_store 	p_hit[60] 	0
scalar tree8_network.node[60].content_store 	hits[60] 	0
scalar tree8_network.node[60].content_store 	misses[60] 	8835
scalar tree8_network.node[60].content_store 	decision_yes[60] 	0
scalar tree8_network.node[60].content_store 	decision_no[60] 	8806
scalar tree8_network.node[60].content_store 	decision_ratio[60] 	0
scalar tree8_network.node[61].core_layer 	interests[61] 	8975
scalar tree8_network.node[61].core_layer 	data[61] 	8948
scalar tree8_network.node[61].content_store 	p_hit[61] 	0
scalar tree8_network.node[61].content_store 	hits[61] 	0
scalar tree8_network.node[61].content_store 	misses[61] 	8975
scalar tree8_network.node[61].content_store 	decision_yes[61] 	0
scalar tree8_network.node[61].content_store 	decision_no[61] 	8948
scalar tree8_network.node[61].content_store 	decision_ratio[61] 	0
scalar tree8_network.node[62].core_layer 	interests[62] 	9103
scalar tree8_network.node[62].core_layer 	data[62] 	9070
scalar tree8_network.node[62].content_store 	p_hit[62] 	0
scalar tree8_network.node[62].content_store 	hits[62] 	0
scalar tree8_network.node[62].content_store 	misses[62] 	9103
scalar tree8_network.node[62].content_store 	decision_yes[62] 	0
scalar tree8_network.node[62].content_store 	decision_no[62] 	9070
scalar tree8_network.node[62].content_store 	decision_ratio[62] 	0
scalar tree8_network.node[63].core_layer 	interests[63] 	9021
scalar tree8_network.node[63].core_layer 	data[63] 	9006
scalar tree8_network.node[63].content_store 	p_hit[63] 	0
scalar tree8_network.node[63].content_store 	hits[63] 	0
scalar tree8_network.node[63].content_store 	misses[63] 	9021
scalar tree8_network.node[63].content_store 	decision_yes[63] 	0
scalar tree8_network.node[63].content_store 	decision_no[63] 	9006
scalar tree8_network.node[63].content_store 	decision_ratio[63] 	0
scalar tree8_network.node[64].core_layer 	interests[64] 	9074
scalar tree8_network.node[64].core_layer 	data[64] 	9047
scalar tree8_network.node[64].content_store 	p_hit[64] 	0
scalar tree8_network.node[64].content_store 	hits[64] 	0
scalar tree8_network.node[64].content_store 	misses[64] 	9074
scalar tree8_network.node[64].content_store 	decision_yes[64] 	0
scalar tree8_network.node[64].content_store 	decision_no[64] 	9047
scalar tree8_network.node[64].content_store 	decision_ratio[64] 	0
scalar tree8_network.node[65].core_layer 	interests[65] 	9041
scalar tree8_network.node[65].core_layer 	data[65] 	9017
scalar tree8_network.node[65].content_store 	p_hit[65] 	0
scalar tree8_network.node[65].content_store 	hits[65] 	0
scalar tree8_network.node[65].content_store 	misses[65] 	9041
scalar tree8_network.node[65].content_store 	decision_yes[65] 	0
scalar tree8_network.node[65].content_store 	decision_no[65] 	9017
scalar tree8_network.node[65].content_store 	decision_ratio[65] 	0
scalar tree8_network.node[66].core_layer 	interests[66] 	9164
scalar tree8_network.node[66].core_layer 	data[66] 	9143
scalar tree8_network.node[66].content_store 	p_hit[66] 	0
scalar tree8_network.node[66].content_store 	hits[66] 	0
scalar tree8_network.node[66].content_store 	misses[66] 	9164
scalar tree8_network.node[66].content_store 	decision_yes[66] 	0
scalar tree8_network.node[66].content_store 	decision_no[66] 	9143
scalar tree8_network.node[66].content_store 	decision_ratio[66] 	0
scalar tree8_network.node[67].core_layer 	interests[67] 	8748
scalar tree8_network.node[67].core_layer 	data[67] 	8730
scalar tree8_network.node[67].content_store 	p_hit[67] 	0
scalar tree8_network.node[67].content_store 	hits[67] 	0
scalar tree8_network.node[67].content_store 	misses[67] 	8748
scalar tree8_network.node[67].content_store 	decision_yes[67] 	0
scalar tree8_network.node[67].content_store 	decision_no[67] 	8730
scalar tree8_network.node[67].content_store 	decision_ratio[67] 	0
scalar tree8_network.node[68].core_layer 	interests[68] 	9078
scalar tree8_network.node[68].core_layer 	data[68] 	9050
scalar tree8_network.node[68].content_store 	p_hit[68] 	0
scalar tree8_network.node[68].content_store 	hits[68] 	0
scalar tree8_network.node[68].content_store 	misses[68] 	9078
scalar tree8_network.node[68].content_store 	decision_yes[68] 	0
scalar tree8_network.node[68].content_store 	decision_no[68] 	9050
scalar tree8_network.node[68].content_store 	decision_ratio[68] 	0
scalar tree8_network.node[69].core_layer 	interests[69] 	9066
scalar tree8_network.node[69].core_layer 	data[69] 	9035
scalar tree8_network.node[69].content_store 	p_hit[69] 	0
scalar tree8_network.node[69].content_store 	hits[69] 	0
scalar tree8_network.node[69].content_store 	misses[69] 	9066
scalar tree8_network.node[69].content_store 	decision_yes[69] 	0
scalar tree8_network.node[69].content_store 	decision_no[69] 	9035
scalar tree8_network.node[69].content_store 	decision_ratio[69] 	0
scalar tree8_network.node[70].core_layer 	interests[70] 	8960
scalar tree8_network.node[70].core_layer 	data[70] 	8935
scalar tree8_network.node[70].content_store 	p_hit[70] 	0
scalar tree8_network.node[70].content_store 	hits[70] 	0
scalar tree8_network.node[70].content_store 	misses[70] 	8960
scalar tree8_network.node[70].content_store 	decision_yes[70] 	0
scalar tree8_network.node[70].content_store 	decision_no[70] 	8935
scalar tree8_network.node[70].content_store 	decision_ratio[70] 	0
scalar tree8_network.node[71].core_layer 	interests[71] 	8860
scalar tree8_network.node[71].core_layer 	data[71] 	8838
scalar tree8_network.node[71].content_store 	p_hit[71] 	0
scalar tree8_network.node[71].content_store 	hits[71] 	0
scalar tree8_network.node[71].content_store 	misses[71] 	8860
scalar tree8_network.node[71].content_store 	decision_yes[71] 	0
scalar tree8_network.node[71].content_store 	decision_no[71] 	8838
scalar tree8_network.node[71].content_store 	decision_ratio[71] 	0
scalar tree8_network.node[72].core_layer 	interests[72] 	9039
scalar tree8_network.node[72].core_layer 	data[72] 	9022
scalar tree8_network.node[72].content_store 	p_hit[72] 	0
scalar tree8_network.node[72].content_store 	hits[72] 	0
scalar tree8_network.node[72].content_store 	misses[72] 	9039
scalar tree8_network.node[72].content_store 	decision_yes[72] 	0
scalar tree8_network.node[72].content_store 	decision_no[72] 	9022
scalar tree8_network.node[72].content_store 	decision_ratio[72] 	0
scalar tree8_network.node[73].core_layer 	interests[73] 	8953
scalar tree8_network.node[73].core_layer 	data[73] 	8928
scalar tree8_network.node[73].content_store 	p_hit[73] 	0
scalar tree8_network.node[73].content_store 	hits[73] 	0
scalar tree8_network.node[73].content_store 	misses[73] 	8953
scalar tree8_network.node[73].content_store 	decision_yes[73] 	0
scalar tree8_network.node[73].content_store 	decision_no[73] 	8928
scalar tree8_network.node[73].content_store 	decision_ratio[73] 	0
scalar tree8_network.node[74].core_layer 	interests[74] 	9093
scalar tree8_network.node[74].core_layer 	data[74] 	9067
scalar tree8_network.node[74].content_store 	p_hit[74] 	0
scalar tree8_network.node[74].content_store 	hits[74] 	0
scalar tree8_network.node[74].content_store 	misses[74] 	9093
scalar tree8_network.node[74].content_store 	decision_yes[74] 	0
scalar tree8_network.node[74].content_store 	decision_no[74] 	9067
scalar tree8_network.node[74].content_store 	decision_ratio[74] 	0
scalar tree8_network.node[75].core_layer 	interests[75] 	8848
scalar tree8_network.node[75].core_layer 	data[75] 	8825
scalar tree8_network.node[75].content_store 	p_hit[75] 	0
scalar tree8_network.node[75].content_store 	hits[75] 	0
scalar tree8_network.node[75].content_store 	misses[75] 	8848
scalar tree8_network.node[75].content_store 	decision_yes[75] 	0
scalar tree8_network.node[75].content_store 	decision_no[75] 	8825
scalar tree8_network.node[75].content_store 	decision_ratio[75] 	0
scalar tree8_network.node[76].core_layer 	interests[76] 	9046
scalar tree8_network.node[76].core_layer 	data[76] 	9012
scalar tree8_network.node[76].content_store 	p_hit[76] 	0
scalar tree8_network.node[76].content_store 	hits[76] 	0
scalar tree8_network.node[76].content_store 	misses[76] 	9046
scalar tree8_network.node[76].content_store 	decision_yes[76] 	0
scalar tree8_network.node[76].content_store 	decision_no[76] 	9012
scalar tree8_network.node[76].content_store 	decision_ratio[76] 	0
scalar tree8_network.node[77].core_layer 	interests[77] 	8939
scalar tree8_network.node[77].core_layer 	data[77] 	8910
scalar tree8_network.node[77].content_store 	p_hit[77] 	0
scalar tree8_network.node[77].content_store 	hits[77] 	0
scalar tree8_network.node[77].content_store 	misses[77] 	8939
scalar tree8_network.node[77].content_store 	decision_yes[77] 	0
scalar tree8_network.node[77].content_store 	decision_no[77] 	8910
scalar tree8_network.node[77].content_store 	decision_ratio[77] 	0
scalar tree8_network.node[78].core_layer 	interests[78] 	9062
scalar tree8_network.node[78].core_layer 	data[78] 	9033
scalar tree8_network.node[78].content_store 	p_hit[78] 	0
scalar tree8_network.node[78].content_store 	hits[78] 	0
scalar tree8_network.node[78].content_store 	misses[78] 	9062
scalar tree8_network.node[78].content_store 	decision_yes[78] 	0
scalar tree8_network.node[78].content_store 	decision_no[78] 	9033
scalar tree8_network.node[78].content_store 	decision_ratio[78] 	0
scalar tree8_network.node[79].core_layer 	interests[79] 	8998
scalar tree8_network.node[79].core_layer 	data[79] 	8969
scalar tree8_network.node[79].content_store 	p_hit[79] 	0
scalar tree8_network.node[79].content_store 	hits[79] 	0
scalar tree8_network.node[79].content_store 	misses[79] 	8998
scalar tree8_network.node[79].content_store 	decision_yes[79] 	0
scalar tree8_network.node[79].content_store 	decision_no[79] 	8969
scalar tree8_network.node[79].content_store 	decision_ratio[79] 	0
scalar tree8_network.node[80].core_layer 	interests[80] 	9016
scalar tree8_network.node[80].core_layer 	data[80] 	8984
scalar tree8_network.node[80].content_store 	p_hit[80] 	0
scalar tree8_network.node[80].content_store 	hits[80] 	0
scalar tree8_network.node[80].content_store 	misses[80] 	9016
scalar tree8_network.node[80].content_store 	decision_yes[80] 	0
scalar tree8_network.node[80].content_store 	decision_no[80] 	8984
scalar tree8_network.node[80].content_store 	decision_ratio[80] 	0
scalar tree8_network.node[81].core_layer 	interests[81] 	8987
scalar tree8_network.node[81].core_layer 	data[81] 	8965
scalar tree8_network.node[81].content_store 	p_hit[81] 	0
scalar tree8_network.node[81].content_store 	hits[81] 	0
scalar tree8_network.node[81].content_store 	misses[81] 	8987
scalar tree8_network.node[81].content_store 	decision_yes[81] 	0
scalar tree8_network.node[81].content_store 	decision_no[81] 	8965
scalar tree8_network.node[81].content_store 	decision_ratio[81] 	0
scalar tree8_network.node[82].core_layer 	interests[82] 	9173
scalar tree8_network.node[82].core_layer 	data[82] 	9151
scalar tree8_network.node[82].content_store 	p_hit[82] 	0
scalar tree8_network.node[82].content_store 	hits[82] 	0
scalar tree8_network.node[82].content_store 	misses[82] 	9173
scalar tree8_network.node[82].content_store 	decision_yes[82] 	0
scalar tree8_network.node[82].content_store 	decision_no[82] 	9151
scalar tree8_network.node[82].content_store 	decision_ratio[82] 	0
scalar tree8_network.node[83].core_layer 	interests[83] 	8824
scalar tree8_network.node[83].core_layer 	data[83] 	8802
scalar tree8_network.node[83].content_store 	p_hit[83] 	0
scalar tree8_network.node[83].content_store 	hits[83] 	0
scalar tree8_network.node[83].content_store 	misses[83] 	8824
scalar tree8_network.node[83].content_store 	decision_yes[83] 	0
scalar tree8_network.node[83].content_store 	decision_no[83] 	8802
scalar tree8_network.node[83].content_store 	decision_ratio[83] 	0
scalar tree8_network.node[84].core_layer 	interests[84] 	9165
scalar tree8_network.node[84].core_layer 	data[84] 	9132
scalar tree8_network.node[84].content_store 	p_hit[84] 	0
scalar tree8_network.node[84].content_store 	hits[84] 	0
scalar tree8_network.node[84].content_store 	misses[84] 	9165
scalar tree8_network.node[84].content_store 	decision_yes[84] 	0
scalar tree8_network.node[84].content_store 	decision_no[84] 	9132
scalar tree8_network.node[84].content_store 	decision_ratio[84] 	0
scalar tree8_network.node[85].core_layer 	interests[85] 	9131
scalar tree8_network.node[85].core_layer 	data[85] 	9096
scalar tree8_network.node[85].content_store 	p_hit[85] 	0
scalar tree8_network.node[85].content_store 	hits[85] 	0
scalar tree8_network.node[85].content_store 	misses[85] 	9131
scalar tree8_network.node[85].content_store 	decision_yes[85] 	0
scalar tree8_network.node[85].content_store 	decision_no[85] 	9096
scalar tree8_network.node[85].content_store 	decision_ratio[85] 	0
scalar tree8_network.node[86].core_layer 	interests[86] 	9079
scalar tree8_network.node[86].core_layer 	data[86] 	9042
scalar tree8_network.node[86].content_store 	p_hit[86] 	0
scalar tree8_network.node[86].content_store 	hits[86] 	0
scalar tree8_network.node[86].content_store 	misses[86] 	9079
scalar tree8_network.node[86].content_store 	decision_yes[86] 	0
scalar tree8_network.node[86].content_store 	decision_no[86] 	9042
scalar tree8_network.node[86].content_store 	decision_ratio[86] 	0
scalar tree8_network.node[87].core_layer 	interests[87] 	9008
scalar tree8_network.node[87].core_layer 	data[87] 	8978
scalar tree8_network.node[87].content_store 	p_hit[87] 	0
scalar tree8_network.node[87].content_store 	hits[87] 	0
scalar tree8_network.node[87].content_store 	misses[87] 	9008
scalar tree8_network.node[87].content_store 	decision_yes[87] 	0
scalar tree8_network.node[87].content_store 	decision_no[87] 	8978
scalar tree8_network.node[87].content_store 	decision_ratio[87] 	0
scalar tree8_network.node[88].core_layer 	interests[88] 	9109
scalar tree8_network.node[88].core_layer 	data[88] 	9083
scalar tree8_network.node[88].content_store 	p_hit[88] 	0
scalar tree8_network.node[88].content_store 	hits[88] 	0
scalar tree8_network.node[88].content_store 	misses[88] 	9109
scalar tree8_network.node[88].content_store 	decision_yes[88] 	0
scalar tree8_network.node[88].content_store 	decision_no[88] 	9083
scalar tree8_network.node[88].content_store 	decision_ratio[88] 	0
scalar tree8_network.node[89].core_layer 	interests[89] 	9110
scalar tree8_network.node[89].core_layer 	data[89] 	9068
scalar tree8_network.node[89].content_store 	p_hit[89] 	0
scalar tree8_network.node[89].content_store 	hits[89] 	0
scalar tree8_network.node[89].content_store 	misses[89] 	9110
scalar tree8_network.node[89].content_store 	decision_yes[89] 	0
scalar tree8_network.node[89].content_store 	decision_no[89] 	9068
scalar tree8_network.node[89].content_store 	decision_ratio[89] 	0
scalar tree8_network.node[90].core_layer 	interests[90] 	9037
scalar tree8_network.node[90].core_layer 	data[90] 	9006
scalar tree8_network.node[90].content_store 	p_hit[90] 	0
scalar tree8_network.node[90].content_store 	hits[90] 	0
scalar tree8_network.node[90].content_store 	misses[90] 	9037
scalar tree8_network.node[90].content_store 	decision_yes[90] 	0
scalar tree8_network.node[90].content_store 	decision_no[90] 	9006
scalar tree8_network.node[90].content_store 	decision_ratio[90] 	0
scalar tree8_network.node[91].core_layer 	interests[91] 	8959
scalar tree8_network.node[91].core_layer 	data[91] 	8932
scalar tree8_network.node[91].content_store 	p_hit[91] 	0
scalar tree8_network.node[91].content_store 	hits[91] 	0
scalar tree8_network.node[91].content_store 	misses[91] 	8959
scalar tree8_network.node[91].content_store 	decision_yes[91] 	0
scalar tree8_network.node[91].content_store 	decision_no[91] 	8932
scalar tree8_network.node[91].content_store 	decision_ratio[91] 	0
scalar tree8_network.node[92].core_layer 	interests[92] 	8909
scalar tree8_network.node[92].core_layer 	data[92] 	8886
scalar tree8_network.node[92].content_store 	p_hit[92] 	0
scalar tree8_network.node[92].content_store 	hits[92] 	0
scalar tree8_network.node[92].content_store 	misses[92] 	8909
scalar tree8_network.node[92].content_store 	decision_yes[92] 	0
scalar tree8_network.node[92].content_store 	decision_no[92] 	8886
scalar tree8_network.node[92].content_store 	decision_ratio[92] 	0
scalar tree8_network.node[93].core_layer 	interests[93] 	8817
scalar tree8_network.node[93].core_layer 	data[93] 	8799
scalar tree8_network.node[93].content_store 	p_hit[93] 	0
scalar tree8_network.node[93].content_store 	hits[93] 	0
scalar tree8_network.node[93].content_store 	misses[93] 	8817
scalar tree8_network.node[93].content_store 	decision_yes[93] 	0
scalar tree8_network.node[93].content_store 	decision_no[93] 	8799
scalar tree8_network.node[93].content_store 	decision_ratio[93] 	0
scalar tree8_network.node[94].core_layer 	interests[94] 	8821
scalar tree8_network.node[94].core_layer 	data[94] 	8795
scalar tree8_network.node[94].content_store 	p_hit[94] 	0
scalar tree8_network.node[94].content_store 	hits[94] 	0
scalar tree8_network.node[94].content_store 	misses[94] 	8821
scalar tree8_network.node[94].content_store 	decision_yes[94] 	0
scalar tree8_network.node[94].content_store 	decision_no[94] 	8795
scalar tree8_network.node[94].content_store 	decision_ratio[94] 	0
scalar tree8_network.node[95].core_layer 	interests[95] 	8984
scalar tree8_network.node[95].core_layer 	data[95] 	8959
scalar tree8_network.node[95].content_store 	p_hit[95] 	0
scalar tree8_network.node[95].content_store 	hits[95] 	0
scalar tree8_network.node[95].content_store 	misses[95] 	8984
scalar tree8_network.node[95].content_store 	decision_yes[95] 	0
scalar tree8_network.node[95].content_store 	decision_no[95] 	8959
scalar tree8_network.node[95].content_store 	decision_ratio[95] 	0
scalar tree8_network.node[96].core_layer 	interests[96] 	8923
scalar tree8_network.node[96].core_layer 	data[96] 	8894
scalar tree8_network.node[96].content_store 	p_hit[96] 	0
scalar tree8_network.node[96].content_store 	hits[96] 	0
scalar tree8_network.node[96].content_store 	misses[96] 	8923
scalar tree8_network.node[96].content_store 	decision_yes[96] 	0
scalar tree8_network.node[96].content_store 	decision_no[96] 	8894
scalar tree8_network.node[96].content_store 	decision_ratio[96] 	0
scalar tree8_network.node[97].core_layer 	interests[97] 	9107
scalar tree8_network.node[97].core_layer 	data[97] 	9079
scalar tree8_network.node[97].content_store 	p_hit[97] 	0
scalar tree8_network.node[97].content_store 	hits[97] 	0
scalar tree8_network.node[97].content_store 	misses[97] 	9107
scalar tree8_network.node[97].content_store 	decision_yes[97] 	0
scalar tree8_network.node[97].content_store 	decision_no[97] 	9079
scalar tree8_network.node[97].content_store 	decision_ratio[97] 	0
scalar tree8_network.node[98].core_layer 	interests[98] 	9106
scalar tree8_network.node[98].core_layer 	data[98] 	9085
scalar tree8_network.node[98].content_store 	p_hit[98] 	0
scalar tree8_network.node[98].content_store 	hits[98] 	0
scalar tree8_network.node[98].content_store 	misses[98] 	9106
scalar tree8_network.node[98].content_store 	decision_yes[98] 	0
scalar tree8_network.node[98].content_store 	decision_no[98] 	9085
scalar tree8_network.node[98].content_store 	decision_ratio[98] 	0
scalar tree8_network.node[99].core_layer 	interests[99] 	8899
scalar tree8_network.node[99].core_layer 	data[99] 	8872
scalar tree8_network.node[99].content_store 	p_hit[99] 	0
scalar tree8_network.node[99].content_store 	hits[99] 	0
scalar tree8_network.node[99].content_store 	misses[99] 	8899
scalar tree8_network.node[99].content_store 	decision_yes[99] 	0
scalar tree8_network.node[99].content_store 	decision_no[99] 	8872
scalar tree8_network.node[99].content_store 	decision_ratio[99] 	0
scalar tree8_network.node[100].core_layer 	interests[100] 	8994
scalar tree8_network.node[100].core_layer 	data[100] 	8958
scalar tree8_network.node[100].content_store 	p_hit[100] 	0
scalar tree8_network.node[100].content_store 	hits[100] 	0
scalar tree8_network.node[100].content_store 	misses[100] 	8994
scalar tree8_network.node[100].content_store 	decision_yes[100] 	0
scalar tree8_network.node[100].content_store 	decision_no[100] 	8958
scalar tree8_network.node[100].content_store 	decision_ratio[100] 	0
scalar tree8_network.node[101].core_layer 	interests[101] 	8996
scalar tree8_network.node[101].core_layer 	data[101] 	8964
scalar tree8_network.node[101].content_store 	p_hit[101] 	0
scalar tree8_network.node[101].content_store 	hits[101] 	0
scalar tree8_network.node[101].content_store 	misses[101] 	8996
scalar tree8_network.node[101].content_store 	decision_yes[101] 	0
scalar tree8_network.node[101].content_store 	decision_no[101] 	8964
scalar tree8_network.node[101].content_store 	decision_ratio[101] 	0
scalar tree8_network.node[102].core_layer 	interests[102] 	9056
scalar tree8_network.node[102].core_layer 	data[102] 	9035
scalar tree8_network.node[102].content_store 	p_hit[102] 	0
scalar tree8_network.node[102].content_store 	hits[102] 	0
scalar tree8_network.node[102].content_store 	misses[102] 	9056
scalar tree8_network.node[102].content_store 	decision_yes[102] 	0
scalar tree8_network.node[102].content_store 	decision_no[102] 	9035
scalar tree8_network.node[102].content_store 	decision_ratio[102] 	0
scalar tree8_network.node[103].core_layer 	interests[103] 	9162
scalar tree8_network.node[103].core_layer 	data[103] 	9131
scalar tree8_network.node[103].content_store 	p_hit[103] 	0
scalar tree8_network.node[103].content_store 	hits[103] 	0
scalar tree8_network.node[103].content_store 	misses[103] 	9162
scalar tree8_network.node[103].content_store 	decision_yes[103] 	0
scalar tree8_network.node[103].content_store 	decision_no[103] 	9131
scalar tree8_network.node[103].content_store 	decision_ratio[103] 	0
scalar tree8_network.node[104].core_layer 	interests[104] 	9025
scalar tree8_network.node[104].core_layer 	data[104] 	8996
scalar tree8_network.node[104].content_store 	p_hit[104] 	0
scalar tree8_network.node[104].content_store 	hits[104] 	0
scalar tree8_network.node[104].content_store 	misses[104] 	9025
scalar tree8_network.node[104].content_store 	decision_yes[104] 	0
scalar tree8_network.node[104].content_store 	decision_no[104] 	8996
scalar tree8_network.node[104].content_store 	decision_ratio[104] 	0
scalar tree8_network.node[105].core_layer 	interests[105] 	8833
scalar tree8_network.node[105].core_layer 	data[105] 	8796
scalar tree8_network.node[105].content_store 	p_hit[105] 	0
scalar tree8_network.node[105].content_store 	hits[105] 	0
scalar tree8_network.node[105].content_store 	misses[105] 	8833
scalar tree8_network.node[105].content_store 	decision_yes[105] 	0
scalar tree8_network.node[105].content_store 	decision_no[105] 	8796
scalar tree8_network.node[105].content_store 	decision_ratio[105] 	0
scalar tree8_network.node[106].core_layer 	interests[106] 	8886
scalar tree8_network.node[106].core_layer 	data[106] 	8866
scalar tree8_network.node[106].content_store 	p_hit[106] 	0
scalar tree8_network.node[106].content_store 	hits[106] 	0
scalar tree8_network.node[106].content_store 	misses[106] 	8886
scalar tree8_network.node[106].content_store 	decision_yes[106] 	0
scalar tree8_network.node[106].content_store 	decision_no[106] 	8866
scalar tree8_network.node[106].content_store 	decision_ratio[106] 	0
scalar tree8_network.node[107].core_layer 	interests[107] 	9098
scalar tree8_network.node[107].core_layer 	data[107] 	9073
scalar tree8_network.node[107].content_store 	p_hit[107] 	0
scalar tree8_network.node[107].content_store 	hits[107] 	0
scalar tree8_network.node[107].content_store 	misses[107] 	9098
scalar tree8_network.node[107].content_store 	decision_yes[107] 	0
scalar tree8_network.node[107].content_store 	decision_no[107] 	9073
scalar tree8_network.node[107].content_store 	decision_ratio[107] 	0
scalar tree8_network.node[108].core_layer 	interests[108] 	9036
scalar tree8_network.node[108].core_layer 	data[108] 	9003
scalar tree8_network.node[108].content_store 	p_hit[108] 	0
scalar tree8_network.node[108].content_store 	hits[108] 	0
scalar tree8_network.node[108].content_store 	misses[108] 	9036
scalar tree8_network.node[108].content_store 	decision_yes[108] 	0
scalar tree8_network.node[108].content_store 	decision_no[108] 	9003
scalar tree8_network.node[108].content_store 	decision_ratio[108] 	0
scalar tree8_network.node[109].core_layer 	interests[109] 	8790
scalar tree8_network.node[109].core_layer 	data[109] 	8760
scalar tree8_network.node[109].content_store 	p_hit[109] 	0
scalar tree8_network.node[109].content_store 	hits[109] 	0
scalar tree8_network.node[109].content_store 	misses[109] 	8790
scalar tree8_network.node[109].content_store 	decision_yes[109] 	0
scalar tree8_network.node[109].content_store 	decision_no[109] 	8760
scalar tree8_network.node[109].content_store 	decision_ratio[109] 	0
scalar tree8_network.node[110].core_layer 	interests[110] 	9204
scalar tree8_network.node[110].core_layer 	data[110] 	9176
scalar tree8_network.node[110].content_store 	p_hit[110] 	0
scalar tree8_network.node[110].content_store 	hits[110] 	0
scalar tree8_network.node[110].content_store 	misses[110] 	9204
scalar tree8_network.node[110].content_store 	decision_yes[110] 	0
scalar tree8_network.node[110].content_store 	decision_no[110] 	9176
scalar tree8_network.node[110].content_store 	decision_ratio[110] 	0
scalar tree8_network.node[111].core_layer 	interests[111] 	9026
scalar tree8_network.node[111].core_layer 	data[111] 	9006
scalar tree8_network.node[111].content_store 	p_hit[111] 	0
scalar tree8_network.node[111].content_store 	hits[111] 	0
scalar tree8_network.node[111].content_store 	misses[111] 	9026
scalar tree8_network.node[111].content_store 	decision_yes[111] 	0
scalar tree8_network.node[111].content_store 	decision_no[111] 	9006
scalar tree8_network.node[111].content_store 	decision_ratio[111] 	0
scalar tree8_network.node[112].core_layer 	interests[112] 	9002
scalar tree8_network.node[112].core_layer 	data[112] 	8965
scalar tree8_network.node[112].content_store 	p_hit[112] 	0
scalar tree8_network.node[112].content_store 	hits[112] 	0
scalar tree8_network.node[112].content_store 	misses[112] 	9002
scalar tree8_network.node[112].content_store 	decision_yes[112] 	0
scalar tree8_network.node[112].content_store 	decision_no[112] 	8965
scalar tree8_network.node[112].content_store 	decision_ratio[112] 	0
scalar tree8_network.node[113].core_layer 	interests[113] 	8914
scalar tree8_network.node[113].core_layer 	data[113] 	8884
scalar tree8_network.node[113].content_store 	p_hit[113] 	0
scalar tree8_network.node[113].content_store 	hits[113] 	0
scalar tree8_network.node[113].content_store 	misses[113] 	8914
scalar tree8_network.node[113].content_store 	decision_yes[113] 	0
scalar tree8_network.node[113].content_store 	decision_no[113] 	8884
scalar tree8_network.node[113].content_store 	decision_ratio[113] 	0
scalar tree8_network.node[114].core_layer 	interests[114] 	9084
scalar tree8_network.node[114].core_layer 	data[114] 	9062
scalar tree8_network.node[114].content_store 	p_hit[114] 	0
scalar tree8_network.node[114].content_store 	hits[114] 	0
scalar tree8_network.node[114].content_store 	misses[114] 	9084
scalar tree8_network.node[114].content_store 	decision_yes[114] 	0
scalar tree8_network.node[114].content_store 	decision_no[114] 	9062
scalar tree8_network.node[114].content_store 	decision_ratio[114] 	0
scalar tree8_network.node[115].core_layer 	interests[115] 	8882
scalar tree8_network.node[115].core_layer 	data[115] 	8868
scalar tree8_network.node[115].content_store 	p_hit[115] 	0
scalar tree8_network.node[115].content_store 	hits[115] 	0
scalar tree8_network.node[115].content_store 	misses[115] 	8882
scalar tree8_network.node[115].content_store 	decision_yes[115] 	0
scalar tree8_network.node[115].content_store 	decision_no[115] 	8868
scalar tree8_network.node[115].content_store 	decision_ratio[115] 	0
scalar tree8_network.node[116].core_layer 	interests[116] 	8996
scalar tree8_network.node[116].core_layer 	data[116] 	8978
scalar tree8_network.node[116].content_store 	p_hit[116] 	0
scalar tree8_network.node[116].content_store 	hits[116] 	0
scalar tree8_network.node[116].content_store 	misses[116] 	8996
scalar tree8_network.node[116].content_store 	decision_yes[116] 	0
scalar tree8_network.node[116].content_store 	decision_no[116] 	8978
scalar tree8_network.node[116].content_store 	decision_ratio[116] 	0
scalar tree8_network.node[117].core_layer 	interests[117] 	8993
scalar tree8_network.node[117].core_layer 	data[117] 	8964
scalar tree8_network.node[117].content_store 	p_hit[117] 	0
scalar tree8_network.node[117].content_store 	hits[117] 	0
scalar tree8_network.node[117].content_store 	misses[117] 	8993
scalar tree8_network.node[117].content_store 	decision_yes[117] 	0
scalar tree8_network.node[117].content_store 	decision_no[117] 	8964
scalar tree8_network.node[117].content_store 	decision_ratio[117] 	0
scalar tree8_network.node[118].core_layer 	interests[118] 	8994
scalar tree8_network.node[118].core_layer 	data[118] 	8971
scalar tree8_network.node[118].content_store 	p_hit[118] 	0
scalar tree8_network.node[118].content_store 	hits[118] 	0
scalar tree8_network.node[118].content_store 	misses[118] 	8994
scalar tree8_network.node[118].content_store 	decision_yes[118] 	0
scalar tree8_network.node[118].content_store 	decision_no[118] 	8971
scalar tree8_network.node[118].content_store 	decision_ratio[118] 	0
scalar tree8_network.node[119].core_layer 	interests[119] 	9161
scalar tree8_network.node[119].core_layer 	data[119] 	9135
scalar tree8_network.node[119].content_store 	p_hit[119] 	0
scalar tree8_network.node[119].content_store 	hits[119] 	0
scalar tree8_network.node[119].content_store 	misses[119] 	9161
scalar tree8_network.node[119].content_store 	decision_yes[119] 	0
scalar tree8_network.node[119].content_store 	decision_no[119] 	9135
scalar tree8_network.node[119].content_store 	decision_ratio[119] 	0
scalar tree8_network.node[120].core_layer 	interests[120] 	9020
scalar tree8_network.node[120].core_layer 	data[120] 	8988
scalar tree8_network.node[120].content_store 	p_hit[120] 	0
scalar tree8_network.node[120].content_store 	hits[120] 	0
scalar tree8_network.node[120].content_store 	misses[120] 	9020
scalar tree8_network.node[120].content_store 	decision_yes[120] 	0
scalar tree8_network.node[120].content_store 	decision_no[120] 	8988
scalar tree8_network.node[120].content_store 	decision_ratio[120] 	0
scalar tree8_network.node[121].core_layer 	interests[121] 	8838
scalar tree8_network.node[121].core_layer 	data[121] 	8809
scalar tree8_network.node[121].content_store 	p_hit[121] 	0
scalar tree8_network.node[121].content_store 	hits[121] 	0
scalar tree8_network.node[121].content_store 	misses[121] 	8838
scalar tree8_network.node[121].content_store 	decision_yes[121] 	0
scalar tree8_network.node[121].content_store 	decision_no[121] 	8809
scalar tree8_network.node[121].content_store 	decision_ratio[121] 	0
scalar tree8_network.node[122].core_layer 	interests[122] 	9118
scalar tree8_network.node[122].core_layer 	data[122] 	9094
scalar tree8_network.node[122].content_store 	p_hit[122] 	0
scalar tree8_network.node[122].content_store 	hits[122] 	0
scalar tree8_network.node[122].content_store 	misses[122] 	9118
scalar tree8_network.node[122].content_store 	decision_yes[122] 	0
scalar tree8_network.node[122].content_store 	decision_no[122] 	9094
scalar tree8_network.node[122].content_store 	decision_ratio[122] 	0
scalar tree8_network.node[123].core_layer 	interests[123] 	8966
scalar tree8_network.node[123].core_layer 	data[123] 	8942
scalar tree8_network.node[123].content_store 	p_hit[123] 	0
scalar tree8_network.node[123].content_store 	hits[123] 	0
scalar tree8_network.node[123].content_store 	misses[123] 	8966
scalar tree8_network.node[123].content_store 	decision_yes[123] 	0
scalar tree8_network.node[123].content_store 	decision_no[123] 	8942
scalar tree8_network.node[123].content_store 	decision_ratio[123] 	0
scalar tree8_network.node[124].core_layer 	interests[124] 	8999
scalar tree8_network.node[124].core_layer 	data[124] 	8957
scalar tree8_network.node[124].content_store 	p_hit[124] 	0
scalar tree8_network.node[124].content_store 	hits[124] 	0
scalar tree8_network.node[124].content_store 	misses[124] 	8999
scalar tree8_network.node[124].content_store 	decision_yes[124] 	0
scalar tree8_network.node[124].content_store 	decision_no[124] 	8957
scalar tree8_network.node[124].content_store 	decision_ratio[124] 	0
scalar tree8_network.node[125].core_layer 	interests[125] 	9144
scalar tree8_network.node[125].core_layer 	data[125] 	9111
scalar tree8_network.node[125].content_store 	p_hit[125] 	0
scalar tree8_network.node[125].content_store 	hits[125] 	0
scalar tree8_network.node[125].content_store 	misses[125] 	9144
scalar tree8_network.node[125].content_store 	decision_yes[125] 	0
scalar tree8_network.node[125].content_store 	decision_no[125] 	9111
scalar tree8_network.node[125].content_store 	decision_ratio[125] 	0
scalar tree8_network.node[126].core_layer 	interests[126] 	9039
scalar tree8_network.node[126].core_layer 	data[126] 	9006
scalar tree8_network.node[126].content_store 	p_hit[126] 	0
scalar tree8_network.node[126].content_store 	hits[126] 	0
scalar tree8_network.node[126].content_store 	misses[126] 	9039
scalar tree8_network.node[126].content_store 	decision_yes[126] 	0
scalar tree8_network.node[126].content_store 	decision_no[126] 	9006
scalar tree8_network.node[126].content_store 	decision_ratio[126] 	0
scalar tree8_network.node[127].core_layer 	interests[127] 	9136
scalar tree8_network.node[127].core_layer 	data[127] 	9109
scalar tree8_network.node[127].content_store 	p_hit[127] 	0
scalar tree8_network.node[127].content_store 	hits[127] 	0
scalar tree8_network.node[127].content_store 	misses[127] 	9136
scalar tree8_network.node[127].content_store 	decision_yes[127] 	0
scalar tree8_network.node[127].content_store 	decision_no[127] 	9109
scalar tree8_network.node[127].content_store 	decision_ratio[127] 	0
scalar tree8_network.node[128].core_layer 	interests[128] 	9052
scalar tree8_network.node[128].core_layer 	data[128] 	9018
scalar tree8_network.node[128].content_store 	p_hit[128] 	0
scalar tree8_network.node[128].content_store 	hits[128] 	0
scalar tree8_network.node[128].content_store 	misses[128] 	9052
scalar tree8_network.node[128].content_store 	decision_yes[128] 	0
scalar tree8_network.node[128].content_store 	decision_no[128] 	9018
scalar tree8_network.node[128].content_store 	decision_ratio[128] 	0
scalar tree8_network.node[129].core_layer 	interests[129] 	8907
scalar tree8_network.node[129].core_layer 	data[129] 	8883
scalar tree8_network.node[129].content_store 	p_hit[129] 	0
scalar tree8_network.node[129].content_store 	hits[129] 	0
scalar tree8_network.node[129].content_store 	misses[129] 	8907
scalar tree8_network.node[129].content_store 	decision_yes[129] 	0
scalar tree8_network.node[129].content_store 	decision_no[129] 	8883
scalar tree8_network.node[129].content_store 	decision_ratio[129] 	0
scalar tree8_network.node[130].core_layer 	interests[130] 	8931
scalar tree8_network.node[130].core_layer 	data[130] 	8897
scalar tree8_network.node[130].content_store 	p_hit[130] 	0
scalar tree8_network.node[130].content_store 	hits[130] 	0
scalar tree8_network.node[130].content_store 	misses[130] 	8931
scalar tree8_network.node[130].content_store 	decision_yes[130] 	0
scalar tree8_network.node[130].content_store 	decision_no[130] 	8897
scalar tree8_network.node[130].content_store 	decision_ratio[130] 	0
scalar tree8_network.node[131].core_layer 	interests[131] 	9001
scalar tree8_network.node[131].core_layer 	data[131] 	8973
scalar tree8_network.node[131].content_store 	p_hit[131] 	0
scalar tree8_network.node[131].content_store 	hits[131] 	0
scalar tree8_network.node[131].content_store 	misses[131] 	9001
scalar tree8_network.node[131].content_store 	decision_yes[131] 	0
scalar tree8_network.node[131].content_store 	decision_no[131] 	8973
scalar tree8_network.node[131].content_store 	decision_ratio[131] 	0
scalar tree8_network.node[132].core_layer 	interests[132] 	8957
scalar tree8_network.node[132].core_layer 	data[132] 	8931
scalar tree8_network.node[132].content_store 	p_hit[132] 	0
scalar tree8_network.node[132].content_store 	hits[132] 	0
scalar tree8_network.node[132].content_store 	misses[132] 	8957
scalar tree8_network.node[132].content_store 	decision_yes[132] 	0
scalar tree8_network.node[132].content_store 	decision_no[132] 	8931
scalar tree8_network.node[132].content_store 	decision_ratio[132] 	0
scalar tree8_network.node[133].core_layer 	interests[133] 	9125
scalar tree8_network.node[133].core_layer 	data[133] 	9096
scalar tree8_network.node[133].content_store 	p_hit[133] 	0
scalar tree8_network.node[133].content_store 	hits[133] 	0
scalar tree8_network.node[133].content_store 	misses[133] 	9125
scalar tree8_network.node[133].content_store 	decision_yes[133] 	0
scalar tree8_network.node[133].content_store 	decision_no[133] 	9096
scalar tree8_network.node[133].content_store 	decision_ratio[133] 	0
scalar tree8_network.node[134].core_layer 	interests[134] 	9039
scalar tree8_network.node[134].core_layer 	data[134] 	9014
scalar tree8_network.node[134].content_store 	p_hit[134] 	0
scalar tree8_network.node[134].content_store 	hits[134] 	0
scalar tree8_network.node[134].content_store 	misses[134] 	9039
scalar tree8_network.node[134].content_store 	decision_yes[134] 	0
scalar tree8_network.node[134].content_store 	decision_no[134] 	9014
scalar tree8_network.node[134].content_store 	decision_ratio[134] 	0
scalar tree8_network.node[135].core_layer 	interests[135] 	9222
scalar tree8_network.node[135].core_layer 	data[135] 	9197
scalar tree8_network.node[135].content_store 	p_hit[135] 	0
scalar tree8_network.node[135].content_store 	hits[135] 	0
scalar tree8_network.node[135].content_store 	misses[135] 	9222
scalar tree8_network.node[135].content_store 	decision_yes[135] 	0
scalar tree8_network.node[135].content_store 	decision_no[135] 	9197
scalar tree8_network.node[135].content_store 	decision_ratio[135] 	0
scalar tree8_network.node[136].core_layer 	interests[136] 	8954
scalar tree8_network.node[136].core_layer 	data[136] 	8925
scalar tree8_network.node[136].content_store 	p_hit[136] 	0
scalar tree8_network.node[136].content_store 	hits[136] 	0
scalar tree8_network.node[136].content_store 	misses[136] 	8954
scalar tree8_network.node[136].content_store 	decision_yes[136] 	0
scalar tree8_network.node[136].content_store 	decision_no[136] 	8925
scalar tree8_network.node[136].content_store 	decision_ratio[136] 	0
scalar tree8_network.node[137].core_layer 	interests[137] 	8933
scalar tree8_network.node[137].core_layer 	data[137] 	8903
scalar tree8_network.node[137].content_store 	p_hit[137] 	0
scalar tree8_network.node[137].content_store 	hits[137] 	0
scalar tree8_network.node[137].content_store 	misses[137] 	8933
scalar tree8_network.node[137].content_store 	decision_yes[137] 	0
scalar tree8_network.node[137].content_store 	decision_no[137] 	8903
scalar tree8_network.node[137].content_store 	decision_ratio[137] 	0
scalar tree8_network.node[138].core_layer 	interests[138] 	8873
scalar tree8_network.node[138].core_layer 	data[138] 	8853
scalar tree8_network.node[138].content_store 	p_hit[138] 	0
scalar tree8_network.node[138].content_store 	hits[138] 	0
scalar tree8_network.node[138].content_store 	misses[138] 	8873
scalar tree8_network.node[138].content_store 	decision_yes[138] 	0
scalar tree8_network.node[138].content_store 	decision_no[138] 	8853
scalar tree8_network.node[138].content_store 	decision_ratio[138] 	0
scalar tree8_network.node[139].core_layer 	interests[139] 	9042
scalar tree8_network.node[139].core_layer 	data[139] 	9012
scalar tree8_network.node[139].content_store 	p_hit[139] 	0
scalar tree8_network.node[139].content_store 	hits[139] 	0
scalar tree8_network.node[139].content_store 	misses[139] 	9042
scalar tree8_network.node[139].content_store 	decision_yes[139] 	0
scalar tree8_network.node[139].content_store 	decision_no[139] 	9012
scalar tree8_network.node[139].content_store 	decision_ratio[139] 	0
scalar tree8_network.node[140].core_layer 	interests[140] 	9022
scalar tree8_network.node[140].core_layer 	data[140] 	8991
scalar tree8_network.node[140].content_store 	p_hit[140] 	0
[...]
scalar tree8_network.client[46] 	downloads[46] 	9015
scalar tree8_network.client[46] 	avg_time[46] 	0.002073936625
scalar tree8_network.client[47] 	hdistance[47] 	1.0470614475298
scalar tree8_network.client[47] 	downloads[47] 	8967
scalar tree8_network.client[47] 	avg_time[47] 	0.002066055249
scalar tree8_network.client[48] 	hdistance[48] 	1.0476664454767
scalar tree8_network.client[48] 	downloads[48] 	9042
scalar tree8_network.client[48] 	avg_time[48] 	0.002068027723
scalar tree8_network.client[49] 	hdistance[49] 	1.0492789826275
scalar tree8_network.client[49] 	downloads[49] 	8807
scalar tree8_network.client[49] 	avg_time[49] 	0.00206786288
scalar tree8_network.client[50] 	hdistance[50] 	1.0501383508578
scalar tree8_network.client[50] 	downloads[50] 	9035
scalar tree8_network.client[50] 	avg_time[50] 	0.002070239013
scalar tree8_network.client[51] 	hdistance[51] 	1.0490708801602
scalar tree8_network.client[51] 	downloads[51] 	8987
scalar tree8_network.client[51] 	avg_time[51] 	0.002068441431
scalar tree8_network.client[52] 	hdistance[52] 	1.0537766372866
scalar tree8_network.client[52] 	downloads[52] 	8963
scalar tree8_network.client[52] 	avg_time[52] 	0.002075822586
scalar tree8_network.client[53] 	hdistance[53] 	1.0506948304614
scalar tree8_network.client[53] 	downloads[53] 	8995
scalar tree8_network.client[53] 	avg_time[53] 	0.002071671463
scalar tree8_network.client[54] 	hdistance[54] 	1.0513611815276
scalar tree8_network.client[54] 	downloads[54] 	9073
scalar tree8_network.client[54] 	avg_time[54] 	0.002074477306
scalar tree8_network.client[55] 	hdistance[55] 	1.0441873278237
scalar tree8_network.client[55] 	downloads[55] 	9075
scalar tree8_network.client[55] 	avg_time[55] 	0.002062501144
scalar tree8_network.client[56] 	hdistance[56] 	1.05085118067
scalar tree8_network.client[56] 	downloads[56] 	9105
scalar tree8_network.client[56] 	avg_time[56] 	0.002071462588
scalar tree8_network.client[57] 	hdistance[57] 	1.045814479638
scalar tree8_network.client[57] 	downloads[57] 	8840
scalar tree8_network.client[57] 	avg_time[57] 	0.002066233279
scalar tree8_network.client[58] 	hdistance[58] 	1.0582329317269
scalar tree8_network.client[58] 	downloads[58] 	8964
scalar tree8_network.client[58] 	avg_time[58] 	0.00208075546
scalar tree8_network.client[59] 	hdistance[59] 	1.0545131564339
scalar tree8_network.client[59] 	downloads[59] 	9007
scalar tree8_network.client[59] 	avg_time[59] 	0.002075970574
scalar tree8_network.client[60] 	hdistance[60] 	1.0484896661367
scalar tree8_network.client[60] 	downloads[60] 	8806
scalar tree8_network.client[60] 	avg_time[60] 	0.002067983064
scalar tree8_network.client[61] 	hdistance[61] 	1.0473848904783
scalar tree8_network.client[61] 	downloads[61] 	8948
scalar tree8_network.client[61] 	avg_time[61] 	0.002067319333
scalar tree8_network.client[62] 	hdistance[62] 	1.0512679162073
scalar tree8_network.client[62] 	downloads[62] 	9070
scalar tree8_network.client[62] 	avg_time[62] 	0.002072700231
scalar tree8_network.client[63] 	hdistance[63] 	1.051077059738
scalar tree8_network.client[63] 	downloads[63] 	9006
scalar tree8_network.client[63] 	avg_time[63] 	0.002073752845
scalar tree8_network.client[64] 	hdistance[64] 	1.0522825245938
scalar tree8_network.client[64] 	downloads[64] 	9047
scalar tree8_network.client[64] 	avg_time[64] 	0.002072976556
scalar tree8_network.client[65] 	hdistance[65] 	1.0496839303538
scalar tree8_network.client[65] 	downloads[65] 	9017
scalar tree8_network.client[65] 	avg_time[65] 	0.002070502094
scalar tree8_network.client[66] 	hdistance[66] 	1.0475773816034
scalar tree8_network.client[66] 	downloads[66] 	9143
scalar tree8_network.client[66] 	avg_time[66] 	0.002068472592
scalar tree8_network.client[67] 	hdistance[67] 	1.0498281786942
scalar tree8_network.client[67] 	downloads[67] 	8730
scalar tree8_network.client[67] 	avg_time[67] 	0.002071786646
scalar tree8_network.client[68] 	hdistance[68] 	1.0480662983425
scalar tree8_network.client[68] 	downloads[68] 	9050
scalar tree8_network.client[68] 	avg_time[68] 	0.002068172552
scalar tree8_network.client[69] 	hdistance[69] 	1.0483674598782
scalar tree8_network.client[69] 	downloads[69] 	9035
scalar tree8_network.client[69] 	avg_time[69] 	0.002068045716
scalar tree8_network.client[70] 	hdistance[70] 	1.0490207050923
scalar tree8_network.client[70] 	downloads[70] 	8935
scalar tree8_network.client[70] 	avg_time[70] 	0.002069180448
scalar tree8_network.client[71] 	hdistance[71] 	1.0463905861055
scalar tree8_network.client[71] 	downloads[71] 	8838
scalar tree8_network.client[71] 	avg_time[71] 	0.002064503652
scalar tree8_network.client[72] 	hdistance[72] 	1.0522057193527
scalar tree8_network.client[72] 	downloads[72] 	9022
scalar tree8_network.client[72] 	avg_time[72] 	0.002075494986
scalar tree8_network.client[73] 	hdistance[73] 	1.0546594982079
scalar tree8_network.client[73] 	downloads[73] 	8928
scalar tree8_network.client[73] 	avg_time[73] 	0.00207853248
scalar tree8_network.client[74] 	hdistance[74] 	1.046652696592
scalar tree8_network.client[74] 	downloads[74] 	9067
scalar tree8_network.client[74] 	avg_time[74] 	0.002066986692
scalar tree8_network.client[75] 	hdistance[75] 	1.0517847025496
scalar tree8_network.client[75] 	downloads[75] 	8825
scalar tree8_network.client[75] 	avg_time[75] 	0.002075891937
scalar tree8_network.client[76] 	hdistance[76] 	1.0522636484687
scalar tree8_network.client[76] 	downloads[76] 	9012
scalar tree8_network.client[76] 	avg_time[76] 	0.002072686829
scalar tree8_network.client[77] 	hdistance[77] 	1.0521885521886
scalar tree8_network.client[77] 	downloads[77] 	8910
scalar tree8_network.client[77] 	avg_time[77] 	0.002073888866
scalar tree8_network.client[78] 	hdistance[78] 	1.0590058673752
scalar tree8_network.client[78] 	downloads[78] 	9033
scalar tree8_network.client[78] 	avg_time[78] 	0.002085170863
scalar tree8_network.client[79] 	hdistance[79] 	1.0547441186308
scalar tree8_network.client[79] 	downloads[79] 	8969
scalar tree8_network.client[79] 	avg_time[79] 	0.002076833913
scalar tree8_network.client[80] 	hdistance[80] 	1.0543187889581
scalar tree8_network.client[80] 	downloads[80] 	8984
scalar tree8_network.client[80] 	avg_time[80] 	0.002075127272
scalar tree8_network.client[81] 	hdistance[81] 	1.0514221974345
scalar tree8_network.client[81] 	downloads[81] 	8965
scalar tree8_network.client[81] 	avg_time[81] 	0.002072487016
scalar tree8_network.client[82] 	hdistance[82] 	1.0428368484319
scalar tree8_network.client[82] 	downloads[82] 	9151
scalar tree8_network.client[82] 	avg_time[82] 	0.002061349613
scalar tree8_network.client[83] 	hdistance[83] 	1.0441945012497
scalar tree8_network.client[83] 	downloads[83] 	8802
scalar tree8_network.client[83] 	avg_time[83] 	0.002064194238
scalar tree8_network.client[84] 	hdistance[84] 	1.0494962768287
scalar tree8_network.client[84] 	downloads[84] 	9132
scalar tree8_network.client[84] 	avg_time[84] 	0.002068000057
scalar tree8_network.client[85] 	hdistance[85] 	1.0438654353562
scalar tree8_network.client[85] 	downloads[85] 	9096
scalar tree8_network.client[85] 	avg_time[85] 	0.002061429498
scalar tree8_network.client[86] 	hdistance[86] 	1.0499889404999
scalar tree8_network.client[86] 	downloads[86] 	9042
scalar tree8_network.client[86] 	avg_time[86] 	0.00206894818
scalar tree8_network.client[87] 	hdistance[87] 	1.0495656048118
scalar tree8_network.client[87] 	downloads[87] 	8978
scalar tree8_network.client[87] 	avg_time[87] 	0.002070646317
scalar tree8_network.client[88] 	hdistance[88] 	1.0572498073324
scalar tree8_network.client[88] 	downloads[88] 	9083
scalar tree8_network.client[88] 	avg_time[88] 	0.002080574062
scalar tree8_network.client[89] 	hdistance[89] 	1.0494044993383
scalar tree8_network.client[89] 	downloads[89] 	9068
scalar tree8_network.client[89] 	avg_time[89] 	0.002068575331
scalar tree8_network.client[90] 	hdistance[90] 	1.0483011325783
scalar tree8_network.client[90] 	downloads[90] 	9006
scalar tree8_network.client[90] 	avg_time[90] 	0.002067412014
scalar tree8_network.client[91] 	hdistance[91] 	1.0540752351097
scalar tree8_network.client[91] 	downloads[91] 	8932
scalar tree8_network.client[91] 	avg_time[91] 	0.002079314655
scalar tree8_network.client[92] 	hdistance[92] 	1.0504163853252
scalar tree8_network.client[92] 	downloads[92] 	8886
scalar tree8_network.client[92] 	avg_time[92] 	0.002072143032
scalar tree8_network.client[93] 	hdistance[93] 	1.0492101375156
scalar tree8_network.client[93] 	downloads[93] 	8799
scalar tree8_network.client[93] 	avg_time[93] 	0.002070079504
scalar tree8_network.client[94] 	hdistance[94] 	1.0527572484366
scalar tree8_network.client[94] 	downloads[94] 	8795
scalar tree8_network.client[94] 	avg_time[94] 	0.002074666971
scalar tree8_network.client[95] 	hdistance[95] 	1.050563678982
scalar tree8_network.client[95] 	downloads[95] 	8959
scalar tree8_network.client[95] 	avg_time[95] 	0.002073009135
scalar tree8_network.client[96] 	hdistance[96] 	1.0523948729481
scalar tree8_network.client[96] 	downloads[96] 	8894
scalar tree8_network.client[96] 	avg_time[96] 	0.002074632581
scalar tree8_network.client[97] 	hdistance[97] 	1.0517678158387
scalar tree8_network.client[97] 	downloads[97] 	9079
scalar tree8_network.client[97] 	avg_time[97] 	0.002075649436
scalar tree8_network.client[98] 	hdistance[98] 	1.0541552008806
scalar tree8_network.client[98] 	downloads[98] 	9085
scalar tree8_network.client[98] 	avg_time[98] 	0.002077301747
scalar tree8_network.client[99] 	hdistance[99] 	1.0506086564472
scalar tree8_network.client[99] 	downloads[99] 	8872
scalar tree8_network.client[99] 	avg_time[99] 	0.00207158495
scalar tree8_network.client[100] 	hdistance[100] 	1.0517972761777
scalar tree8_network.client[100] 	downloads[100] 	8958
scalar tree8_network.client[100] 	avg_time[100] 	0.002072740297
scalar tree8_network.client[101] 	hdistance[101] 	1.0520972780009
scalar tree8_network.client[101] 	downloads[101] 	8964
scalar tree8_network.client[101] 	avg_time[101] 	0.002071733633
scalar tree8_network.client[102] 	hdistance[102] 	1.0536801328168
scalar tree8_network.client[102] 	downloads[102] 	9035
scalar tree8_network.client[102] 	avg_time[102] 	0.002077092335
scalar tree8_network.client[103] 	hdistance[103] 	1.0478589420655
scalar tree8_network.client[103] 	downloads[103] 	9131
scalar tree8_network.client[103] 	avg_time[103] 	0.002066570952
scalar tree8_network.client[104] 	hdistance[104] 	1.0503557136505
scalar tree8_network.client[104] 	downloads[104] 	8996
scalar tree8_network.client[104] 	avg_time[104] 	0.002071672439
scalar tree8_network.client[105] 	hdistance[105] 	1.0457025920873
scalar tree8_network.client[105] 	downloads[105] 	8796
scalar tree8_network.client[105] 	avg_time[105] 	0.002064015366
scalar tree8_network.client[106] 	hdistance[106] 	1.0513196480938
scalar tree8_network.client[106] 	downloads[106] 	8866
scalar tree8_network.client[106] 	avg_time[106] 	0.00207535471
scalar tree8_network.client[107] 	hdistance[107] 	1.052463352805
scalar tree8_network.client[107] 	downloads[107] 	9073
scalar tree8_network.client[107] 	avg_time[107] 	0.002076295685
scalar tree8_network.client[108] 	hdistance[108] 	1.0489836721093
scalar tree8_network.client[108] 	downloads[108] 	9003
scalar tree8_network.client[108] 	avg_time[108] 	0.002069661361
scalar tree8_network.client[109] 	hdistance[109] 	1.0496575342466
scalar tree8_network.client[109] 	downloads[109] 	8760
scalar tree8_network.client[109] 	avg_time[109] 	0.002070046732
scalar tree8_network.client[110] 	hdistance[110] 	1.0531822144725
scalar tree8_network.client[110] 	downloads[110] 	9176
scalar tree8_network.client[110] 	avg_time[110] 	0.002075173958
scalar tree8_network.client[111] 	hdistance[111] 	1.0511880968243
scalar tree8_network.client[111] 	downloads[111] 	9006
scalar tree8_network.client[111] 	avg_time[111] 	0.00207042822
scalar tree8_network.client[112] 	hdistance[112] 	1.0508644729504
scalar tree8_network.client[112] 	downloads[112] 	8965
scalar tree8_network.client[112] 	avg_time[112] 	0.002068821824
scalar tree8_network.client[113] 	hdistance[113] 	1.0527915353444
scalar tree8_network.client[113] 	downloads[113] 	8884
scalar tree8_network.client[113] 	avg_time[113] 	0.002073510133
scalar tree8_network.client[114] 	hdistance[114] 	1.0494372103289
scalar tree8_network.client[114] 	downloads[114] 	9062
scalar tree8_network.client[114] 	avg_time[114] 	0.002071708803
scalar tree8_network.client[115] 	hdistance[115] 	1.0511953089761
scalar tree8_network.client[115] 	downloads[115] 	8868
scalar tree8_network.client[115] 	avg_time[115] 	0.002073798946
scalar tree8_network.client[116] 	hdistance[116] 	1.0523501893517
scalar tree8_network.client[116] 	downloads[116] 	8978
scalar tree8_network.client[116] 	avg_time[116] 	0.002076394217
scalar tree8_network.client[117] 	hdistance[117] 	1.0457385095939
scalar tree8_network.client[117] 	downloads[117] 	8964
scalar tree8_network.client[117] 	avg_time[117] 	0.002062815137
scalar tree8_network.client[118] 	hdistance[118] 	1.0443651766804
scalar tree8_network.client[118] 	downloads[118] 	8971
scalar tree8_network.client[118] 	avg_time[118] 	0.002063719631
scalar tree8_network.client[119] 	hdistance[119] 	1.0461959496442
scalar tree8_network.client[119] 	downloads[119] 	9135
scalar tree8_network.client[119] 	avg_time[119] 	0.002064835253
scalar tree8_network.client[120] 	hdistance[120] 	1.0506230529595
scalar tree8_network.client[120] 	downloads[120] 	8988
scalar tree8_network.client[120] 	avg_time[120] 	0.002070247337
scalar tree8_network.client[121] 	hdistance[121] 	1.0549438074696
scalar tree8_network.client[121] 	downloads[121] 	8809
scalar tree8_network.client[121] 	avg_time[121] 	0.002078093699
scalar tree8_network.client[122] 	hdistance[122] 	1.0521222784253
scalar tree8_network.client[122] 	downloads[122] 	9094
scalar tree8_network.client[122] 	avg_time[122] 	0.002072887855
scalar tree8_network.client[123] 	hdistance[123] 	1.0526727801387
scalar tree8_network.client[123] 	downloads[123] 	8942
scalar tree8_network.client[123] 	avg_time[123] 	0.002074395634
scalar tree8_network.client[124] 	hdistance[124] 	1.0513564809646
scalar tree8_network.client[124] 	downloads[124] 	8957
scalar tree8_network.client[124] 	avg_time[124] 	0.002071176734
scalar tree8_network.client[125] 	hdistance[125] 	1.0495006036659
scalar tree8_network.client[125] 	downloads[125] 	9111
scalar tree8_network.client[125] 	avg_time[125] 	0.002071894984
scalar tree8_network.client[126] 	hdistance[126] 	1.047079724628
scalar tree8_network.client[126] 	downloads[126] 	9006
scalar tree8_network.client[126] 	avg_time[126] 	0.002064340352
scalar tree8_network.client[127] 	hdistance[127] 	1.0504995059831
scalar tree8_network.client[127] 	downloads[127] 	9109
scalar tree8_network.client[127] 	avg_time[127] 	0.002071114801
scalar tree8_network.client[128] 	hdistance[128] 	1.0548902195609
scalar tree8_network.client[128] 	downloads[128] 	9018
scalar tree8_network.client[128] 	avg_time[128] 	0.00207747215
scalar tree8_network.client[129] 	hdistance[129] 	1.0504334121355
scalar tree8_network.client[129] 	downloads[129] 	8883
scalar tree8_network.client[129] 	avg_time[129] 	0.002072231366
scalar tree8_network.client[130] 	hdistance[130] 	1.0488928852422
scalar tree8_network.client[130] 	downloads[130] 	8897
scalar tree8_network.client[130] 	avg_time[130] 	0.002068350985
scalar tree8_network.client[131] 	hdistance[131] 	1.0488131059846
scalar tree8_network.client[131] 	downloads[131] 	8973
scalar tree8_network.client[131] 	avg_time[131] 	0.002068172721
scalar tree8_network.client[132] 	hdistance[132] 	1.0490426603964
scalar tree8_network.client[132] 	downloads[132] 	8931
scalar tree8_network.client[132] 	avg_time[132] 	0.002069629291
scalar tree8_network.client[133] 	hdistance[133] 	1.0429859278804
scalar tree8_network.client[133] 	downloads[133] 	9096
scalar tree8_network.client[133] 	avg_time[133] 	0.002061250074
scalar tree8_network.client[134] 	hdistance[134] 	1.047703572221
scalar tree8_network.client[134] 	downloads[134] 	9014
scalar tree8_network.client[134] 	avg_time[134] 	0.002067737778
scalar tree8_network.client[135] 	hdistance[135] 	1.0459932586713
scalar tree8_network.client[135] 	downloads[135] 	9197
scalar tree8_network.client[135] 	avg_time[135] 	0.002066966724
scalar tree8_network.client[136] 	hdistance[136] 	1.0449299719888
scalar tree8_network.client[136] 	downloads[136] 	8925
scalar tree8_network.client[136] 	avg_time[136] 	0.002064265421
scalar tree8_network.client[137] 	hdistance[137] 	1.0477367179602
scalar tree8_network.client[137] 	downloads[137] 	8903
scalar tree8_network.client[137] 	avg_time[137] 	0.002067007371
scalar tree8_network.client[138] 	hdistance[138] 	1.0507172709816
scalar tree8_network.client[138] 	downloads[138] 	8853
scalar tree8_network.client[138] 	avg_time[138] 	0.002072511327
scalar tree8_network.client[139] 	hdistance[139] 	1.0454948956946
scalar tree8_network.client[139] 	downloads[139] 	9012
scalar tree8_network.client[139] 	avg_time[139] 	0.002064377172
scalar tree8_network.client[140] 	hdistance[140] 	1.0442664887109
scalar tree8_network.client[140] 	downloads[140] 	8991
scalar tree8_network.client[140] 	avg_time[140] 	0.002061378569
scalar tree8_network.client[141] 	hdistance[141] 	1.0526786712896
scalar tree8_network.client[141] 	downloads[141] 	8941
scalar tree8_network.client[141] 	avg_time[141] 	0.002071810243
scalar tree8_network.client[142] 	hdistance[142] 	1.0462840809147
scalar tree8_network.client[142] 	downloads[142] 	9096
scalar tree8_network.client[142] 	avg_time[142] 	0.002065855034
scalar tree8_network.client[143] 	hdistance[143] 	1.0492077661236
scalar tree8_network.client[143] 	downloads[143] 	8962
scalar tree8_network.client[143] 	avg_time[143] 	0.002069318705
scalar tree8_network.client[144] 	hdistance[144] 	1.0620172147429
scalar tree8_network.client[144] 	downloads[144] 	9062
scalar tree8_network.client[144] 	avg_time[144] 	0.002088248611
scalar tree8_network.client[145] 	hdistance[145] 	1.0456784594716
scalar tree8_network.client[145] 	downloads[145] 	8932
scalar tree8_network.client[145] 	avg_time[145] 	0.002067522825
scalar tree8_network.client[146] 	hdistance[146] 	1.0459492140266
scalar tree8_network.client[146] 	downloads[146] 	9097
scalar tree8_network.client[146] 	avg_time[146] 	0.002064329036
scalar tree8_network.client[147] 	hdistance[147] 	1.0463346390599
scalar tree8_network.client[147] 	downloads[147] 	8935
scalar tree8_network.client[147] 	avg_time[147] 	0.002064908543
scalar tree8_network.client[148] 	hdistance[148] 	1.0456069751844
scalar tree8_network.client[148] 	downloads[148] 	8946
scalar tree8_network.client[148] 	avg_time[148] 	0.002065503264
scalar tree8_network.client[149] 	hdistance[149] 	1.0528468767275
scalar tree8_network.client[149] 	downloads[149] 	9045
scalar tree8_network.client[149] 	avg_time[149] 	0.002073659797
scalar tree8_network.client[150] 	hdistance[150] 	1.0534214357711
scalar tree8_network.client[150] 	downloads[150] 	8929
scalar tree8_network.client[150] 	avg_time[150] 	0.002076326763
scalar tree8_network.client[151] 	hdistance[151] 	1.0439911797133
scalar tree8_network.client[151] 	downloads[151] 	9070
scalar tree8_network.client[151] 	avg_time[151] 	0.002061412297
scalar tree8_network.client[152] 	hdistance[152] 	1.0492004920049
scalar tree8_network.client[152] 	downloads[152] 	8943
scalar tree8_network.client[152] 	avg_time[152] 	0.002069367702
scalar tree8_network.client[153] 	hdistance[153] 	1.0459899046551
scalar tree8_network.client[153] 	downloads[153] 	8915
scalar tree8_network.client[153] 	avg_time[153] 	0.002063677057
scalar tree8_network.client[154] 	hdistance[154] 	1.0512105321879
scalar tree8_network.client[154] 	downloads[154] 	8963
scalar tree8_network.client[154] 	avg_time[154] 	0.002071231831
scalar tree8_network.client[155] 	hdistance[155] 	1.0549280177187
scalar tree8_network.client[155] 	downloads[155] 	9030
scalar tree8_network.client[155] 	avg_time[155] 	0.002077252932
