version 2
run PCP-0-20170430-15:38:21-6742
attr F spr
attr a 1.8
attr configname PCP
attr datetime 20170430-15:38:21
attr experiment PCP
attr inifile omnetpp.ini
attr iterationvars "$net=tree8, $theta1=2, $theta2=2, $lambda=5, $a=1.8, $rep=0, $window=60, $variance=0.05, $mytime=1800, $F=spr, $ttl=1000"
attr iterationvars2 "$net=tree8, $theta1=2, $theta2=2, $lambda=5, $a=1.8, $rep=0, $window=60, $variance=0.05, $mytime=1800, $F=spr, $ttl=1000, $repetition=0"
attr lambda 5
attr measurement "$net=tree8, $theta1=2, $theta2=2, $lambda=5, $a=1.8, $rep=0, $window=60, $variance=0.05, $mytime=1800, $F=spr, $ttl=1000"
attr mytime 1800
attr net tree8
attr network networks.${net=tree8}_network
attr processid 6742
attr rep 0
attr repetition 0
attr replication #0
attr resultdir results
attr runnumber 0
attr seedset 0
attr theta1 2
attr theta2 2
attr ttl 1000
attr variance 0.05
attr window 60

scalar . 	a 	1.8
scalar . 	lambda 	5
scalar . 	mytime 	1800
scalar . 	rep 	0
scalar . 	theta1 	2
scalar . 	theta2 	2
scalar . 	ttl 	1000
scalar . 	variance 	0.05
scalar . 	window 	60
scalar tree8_network.content_distribution 	repo-0 	0
scalar tree8_network.content_distribution 	client-0 	31
scalar tree8_network.content_distribution 	client-1 	32
scalar tree8_network.content_distribution 	client-2 	33
scalar tree8_network.content_distribution 	client-3 	34
scalar tree8_network.content_distribution 	client-4 	35
scalar tree8_network.content_distribution 	client-5 	36
scalar tree8_network.content_distribution 	client-6 	37
scalar tree8_network.content_distribution 	client-7 	38
scalar tree8_network.content_distribution 	client-8 	39
scalar tree8_network.content_distribution 	client-9 	40
scalar tree8_network.content_distribution 	client-10 	41
scalar tree8_network.content_distribution 	client-11 	42
scalar tree8_network.content_distribution 	client-12 	43
scalar tree8_network.content_distribution 	client-13 	44
scalar tree8_network.content_distribution 	client-14 	45
scalar tree8_network.content_distribution 	client-15 	46
scalar tree8_network.content_distribution 	client-16 	47
scalar tree8_network.content_distribution 	client-17 	48
scalar tree8_network.content_distribution 	client-18 	49
scalar tree8_network.content_distribution 	client-19 	50
scalar tree8_network.content_distribution 	client-20 	51
scalar tree8_network.content_distribution 	client-21 	52
scalar tree8_network.content_distribution 	client-22 	53
scalar tree8_network.content_distribution 	client-23 	54
scalar tree8_network.content_distribution 	client-24 	55
scalar tree8_network.content_distribution 	client-25 	56
scalar tree8_network.content_distribution 	client-26 	57
scalar tree8_network.content_distribution 	client-27 	58
scalar tree8_network.content_distribution 	client-28 	59
scalar tree8_network.content_distribution 	client-29 	60
scalar tree8_network.content_distribution 	client-30 	61
scalar tree8_network.content_distribution 	client-31 	62
scalar tree8_network.content_distribution 	client-32 	63
scalar tree8_network.content_distribution 	client-33 	64
scalar tree8_network.content_distribution 	client-34 	65
scalar tree8_network.content_distribution 	client-35 	66
scalar tree8_network.content_distribution 	client-36 	67
scalar tree8_network.content_distribution 	client-37 	68
scalar tree8_network.content_distribution 	client-38 	69
scalar tree8_network.content_distribution 	client-39 	70
scalar tree8_network.content_distribution 	client-40 	71
scalar tree8_network.content_distribution 	client-41 	72
scalar tree8_network.content_distribution 	client-42 	73
scalar tree8_network.content_distribution 	client-43 	74
scalar tree8_network.content_distribution 	client-44 	75
scalar tree8_network.content_distribution 	client-45 	76
scalar tree8_network.content_distribution 	client-46 	77
scalar tree8_network.content_distribution 	client-47 	78
scalar tree8_network.content_distribution 	client-48 	79
scalar tree8_network.content_distribution 	client-49 	80
scalar tree8_network.content_distribution 	client-50 	81
scalar tree8_network.content_distribution 	client-51 	82
scalar tree8_network.content_distribution 	client-52 	83
scalar tree8_network.content_distribution 	client-53 	84
scalar tree8_network.content_distribution 	client-54 	85
scalar tree8_network.content_distribution 	client-55 	86
scalar tree8_network.content_distribution 	client-56 	87
scalar tree8_network.content_distribution 	client-57 	88
scalar tree8_network.content_distribution 	client-58 	89
scalar tree8_network.content_distribution 	client-59 	90
scalar tree8_network.content_distribution 	client-60 	91
scalar tree8_network.content_distribution 	client-61 	92
scalar tree8_network.content_distribution 	client-62 	93
scalar tree8_network.content_distribution 	client-63 	94
scalar tree8_network.content_distribution 	client-64 	95
scalar tree8_network.content_distribution 	client-65 	96
scalar tree8_network.content_distribution 	client-66 	97
scalar tree8_network.content_distribution 	client-67 	98
scalar tree8_network.content_distribution 	client-68 	99
scalar tree8_network.content_distribution 	client-69 	100
scalar tree8_network.content_distribution 	client-70 	101
scalar tree8_network.content_distribution 	client-71 	102
scalar tree8_network.content_distribution 	client-72 	103
scalar tree8_network.content_distribution 	client-73 	104
scalar tree8_network.content_distribution 	client-74 	105
scalar tree8_network.content_distribution 	client-75 	106
scalar tree8_network.content_distribution 	client-76 	107
scalar tree8_network.content_distribution 	client-77 	108
scalar tree8_network.content_distribution 	client-78 	109
scalar tree8_network.content_distribution 	client-79 	110
scalar tree8_network.content_distribution 	client-80 	111
scalar tree8_network.content_distribution 	client-81 	112
scalar tree8_network.content_distribution 	client-82 	113
scalar tree8_network.content_distribution 	client-83 	114
scalar tree8_network.content_distribution 	client-84 	115
scalar tree8_network.content_distribution 	client-85 	116
scalar tree8_network.content_distribution 	client-86 	117
scalar tree8_network.content_distribution 	client-87 	118
scalar tree8_network.content_distribution 	client-88 	119
scalar tree8_network.content_distribution 	client-89 	120
scalar tree8_network.content_distribution 	client-90 	121
scalar tree8_network.content_distribution 	client-91 	122
scalar tree8_network.content_distribution 	client-92 	123
scalar tree8_network.content_distribution 	client-93 	124
scalar tree8_network.content_distribution 	client-94 	125
scalar tree8_network.content_distribution 	client-95 	126
scalar tree8_network.content_distribution 	client-96 	127
scalar tree8_network.content_distribution 	client-97 	128
scalar tree8_network.content_distribution 	client-98 	129
scalar tree8_network.content_distribution 	client-99 	130
scalar tree8_network.content_distribution 	client-100 	131
scalar tree8_network.content_distribution 	client-101 	132
scalar tree8_network.content_distribution 	client-102 	133
scalar tree8_network.content_distribution 	client-103 	134
scalar tree8_network.content_distribution 	client-104 	135
scalar tree8_network.content_distribution 	client-105 	136
scalar tree8_network.content_distribution 	client-106 	137
scalar tree8_network.content_distribution 	client-107 	138
scalar tree8_network.content_distribution 	client-108 	139
scalar tree8_network.content_distribution 	client-109 	140
scalar tree8_network.content_distribution 	client-110 	141
scalar tree8_network.content_distribution 	client-111 	142
scalar tree8_network.content_distribution 	client-112 	143
scalar tree8_network.content_distribution 	client-113 	144
scalar tree8_network.content_distribution 	client-114 	145
scalar tree8_network.content_distribution 	client-115 	146
scalar tree8_network.content_distribution 	client-116 	147
scalar tree8_network.content_distribution 	client-117 	148
scalar tree8_network.content_distribution 	client-118 	149
scalar tree8_network.content_distribution 	client-119 	150
scalar tree8_network.content_distribution 	client-120 	151
scalar tree8_network.content_distribution 	client-121 	152
scalar tree8_network.content_distribution 	client-122 	153
scalar tree8_network.content_distribution 	client-123 	154
scalar tree8_network.content_distribution 	client-124 	155
scalar tree8_network.content_distribution 	repo-0_card 	10000
scalar tree8_network.content_distribution 	repo-0_price 	0
scalar tree8_network.statistics 	stabilization_time 	0
scalar tree8_network.statistics 	p_hit 	0.48370931257556
scalar tree8_network.statistics 	interests 	14682.173076923
scalar tree8_network.statistics 	data 	7464.5128205128
scalar tree8_network.statistics 	hdistance 	1.0503976079668
scalar tree8_network.statistics 	avg_time 	0.002071408
scalar tree8_network.statistics 	downloads 	1122522
scalar tree8_network.statistics 	total_cost 	0
scalar tree8_network.statistics 	total_replicas 	10000
scalar tree8_network.statistics 	inner_hit 	0.98697219297261
scalar tree8_network.node[0].core_layer 	interests[0] 	17542
scalar tree8_network.node[0].core_layer 	repo_load[0] 	14624
scalar tree8_network.node[0].core_layer 	data[0] 	0
scalar tree8_network.node[0].core_layer 	repo_int[0] 	14624
scalar tree8_network.node[0].content_store 	p_hit[0] 	0.16634363242504
scalar tree8_network.node[0].content_store 	hits[0] 	2918
scalar tree8_network.node[0].content_store 	misses[0] 	14624
scalar tree8_network.node[0].content_store 	decision_yes[0] 	14624
scalar tree8_network.node[0].content_store 	decision_no[0] 	0
scalar tree8_network.node[0].content_store 	decision_ratio[0] 	1
scalar tree8_network.node[1].core_layer 	interests[1] 	4884
scalar tree8_network.node[1].core_layer 	data[1] 	3491
scalar tree8_network.node[1].content_store 	p_hit[1] 	0.28521703521704
scalar tree8_network.node[1].content_store 	hits[1] 	1393
scalar tree8_network.node[1].content_store 	misses[1] 	3491
scalar tree8_network.node[1].content_store 	decision_yes[1] 	588
scalar tree8_network.node[1].content_store 	decision_no[1] 	2903
scalar tree8_network.node[1].content_store 	decision_ratio[1] 	0.168433113721
scalar tree8_network.node[2].core_layer 	interests[2] 	4961
scalar tree8_network.node[2].core_layer 	data[2] 	3603
scalar tree8_network.node[2].content_store 	p_hit[2] 	0.27373513404556
scalar tree8_network.node[2].content_store 	hits[2] 	1358
scalar tree8_network.node[2].content_store 	misses[2] 	3603
scalar tree8_network.node[2].content_store 	decision_yes[2] 	592
scalar tree8_network.node[2].content_store 	decision_no[2] 	3011
scalar tree8_network.node[2].content_store 	decision_ratio[2] 	0.16430752150985
scalar tree8_network.node[3].core_layer 	interests[3] 	4864
scalar tree8_network.node[3].core_layer 	data[3] 	3465
scalar tree8_network.node[3].content_store 	p_hit[3] 	0.28762335526316
scalar tree8_network.node[3].content_store 	hits[3] 	1399
scalar tree8_network.node[3].content_store 	misses[3] 	3465
scalar tree8_network.node[3].content_store 	decision_yes[3] 	598
scalar tree8_network.node[3].content_store 	decision_no[3] 	2867
scalar tree8_network.node[3].content_store 	decision_ratio[3] 	0.17258297258297
scalar tree8_network.node[4].core_layer 	interests[4] 	4922
scalar tree8_network.node[4].core_layer 	data[4] 	3563
scalar tree8_network.node[4].content_store 	p_hit[4] 	0.27610727346607
scalar tree8_network.node[4].content_store 	hits[4] 	1359
scalar tree8_network.node[4].content_store 	misses[4] 	3563
scalar tree8_network.node[4].content_store 	decision_yes[4] 	588
scalar tree8_network.node[4].content_store 	decision_no[4] 	2975
scalar tree8_network.node[4].content_store 	decision_ratio[4] 	0.16502946954813
scalar tree8_network.node[5].core_layer 	interests[5] 	4769
scalar tree8_network.node[5].core_layer 	data[5] 	3420
scalar tree8_network.node[5].content_store 	p_hit[5] 	0.28286852589641
scalar tree8_network.node[5].content_store 	hits[5] 	1349
scalar tree8_network.node[5].content_store 	misses[5] 	3420
scalar tree8_network.node[5].content_store 	decision_yes[5] 	552
scalar tree8_network.node[5].content_store 	decision_no[5] 	2868
scalar tree8_network.node[5].content_store 	decision_ratio[5] 	0.16140350877193
scalar tree8_network.node[6].core_layer 	interests[6] 	44595
scalar tree8_network.node[6].core_layer 	data[6] 	931
scalar tree8_network.node[6].content_store 	p_hit[6] 	0.97912322009194
scalar tree8_network.node[6].content_store 	hits[6] 	43664
scalar tree8_network.node[6].content_store 	misses[6] 	931
scalar tree8_network.node[6].content_store 	decision_yes[6] 	262
scalar tree8_network.node[6].content_store 	decision_no[6] 	669
scalar tree8_network.node[6].content_store 	decision_ratio[6] 	0.28141783029001
scalar tree8_network.node[7].core_layer 	interests[7] 	45023
scalar tree8_network.node[7].core_layer 	data[7] 	1007
scalar tree8_network.node[7].content_store 	p_hit[7] 	0.97763365391022
scalar tree8_network.node[7].content_store 	hits[7] 	44016
scalar tree8_network.node[7].content_store 	misses[7] 	1007
scalar tree8_network.node[7].content_store 	decision_yes[7] 	288
scalar tree8_network.node[7].content_store 	decision_no[7] 	719
scalar tree8_network.node[7].content_store 	decision_ratio[7] 	0.28599801390268
scalar tree8_network.node[8].core_layer 	interests[8] 	44864
scalar tree8_network.node[8].core_layer 	data[8] 	1003
scalar tree8_network.node[8].content_store 	p_hit[8] 	0.97764354493581
scalar tree8_network.node[8].content_store 	hits[8] 	43861
scalar tree8_network.node[8].content_store 	misses[8] 	1003
scalar tree8_network.node[8].content_store 	decision_yes[8] 	291
scalar tree8_network.node[8].content_store 	decision_no[8] 	712
scalar tree8_network.node[8].content_store 	decision_ratio[8] 	0.2901296111665
scalar tree8_network.node[9].core_layer 	interests[9] 	44866
scalar tree8_network.node[9].core_layer 	data[9] 	949
scalar tree8_network.node[9].content_store 	p_hit[9] 	0.97884812552935
scalar tree8_network.node[9].content_store 	hits[9] 	43917
scalar tree8_network.node[9].content_store 	misses[9] 	949
scalar tree8_network.node[9].content_store 	decision_yes[9] 	260
scalar tree8_network.node[9].content_store 	decision_no[9] 	689
scalar tree8_network.node[9].content_store 	decision_ratio[9] 	0.27397260273973
scalar tree8_network.node[10].core_layer 	interests[10] 	45093
scalar tree8_network.node[10].core_layer 	data[10] 	994
scalar tree8_network.node[10].content_store 	p_hit[10] 	0.97795666733196
scalar tree8_network.node[10].content_store 	hits[10] 	44099
scalar tree8_network.node[10].content_store 	misses[10] 	994
scalar tree8_network.node[10].content_store 	decision_yes[10] 	292
scalar tree8_network.node[10].content_store 	decision_no[10] 	702
scalar tree8_network.node[10].content_store 	decision_ratio[10] 	0.29376257545272
scalar tree8_network.node[11].core_layer 	interests[11] 	44722
scalar tree8_network.node[11].core_layer 	data[11] 	989
scalar tree8_network.node[11].content_store 	p_hit[11] 	0.97788560440052
scalar tree8_network.node[11].content_store 	hits[11] 	43733
scalar tree8_network.node[11].content_store 	misses[11] 	989
scalar tree8_network.node[11].content_store 	decision_yes[11] 	259
scalar tree8_network.node[11].content_store 	decision_no[11] 	730
scalar tree8_network.node[11].content_store 	decision_ratio[11] 	0.2618806875632
scalar tree8_network.node[12].core_layer 	interests[12] 	45088
scalar tree8_network.node[12].core_layer 	data[12] 	980
scalar tree8_network.node[12].content_store 	p_hit[12] 	0.97826472675656
scalar tree8_network.node[12].content_store 	hits[12] 	44108
scalar tree8_network.node[12].content_store 	misses[12] 	980
scalar tree8_network.node[12].content_store 	decision_yes[12] 	258
scalar tree8_network.node[12].content_store 	decision_no[12] 	722
scalar tree8_network.node[12].content_store 	decision_ratio[12] 	0.26326530612245
scalar tree8_network.node[13].core_layer 	interests[13] 	44893
scalar tree8_network.node[13].core_layer 	data[13] 	964
scalar tree8_network.node[13].content_store 	p_hit[13] 	0.97852671908761
scalar tree8_network.node[13].content_store 	hits[13] 	43929
scalar tree8_network.node[13].content_store 	misses[13] 	964
scalar tree8_network.node[13].content_store 	decision_yes[13] 	272
scalar tree8_network.node[13].content_store 	decision_no[13] 	692
scalar tree8_network.node[13].content_store 	decision_ratio[13] 	0.28215767634855
scalar tree8_network.node[14].core_layer 	interests[14] 	44680
scalar tree8_network.node[14].core_layer 	data[14] 	993
scalar tree8_network.node[14].content_store 	p_hit[14] 	0.97777529095792
scalar tree8_network.node[14].content_store 	hits[14] 	43687
scalar tree8_network.node[14].content_store 	misses[14] 	993
scalar tree8_network.node[14].content_store 	decision_yes[14] 	283
scalar tree8_network.node[14].content_store 	decision_no[14] 	710
scalar tree8_network.node[14].content_store 	decision_ratio[14] 	0.28499496475327
scalar tree8_network.node[15].core_layer 	interests[15] 	44908
scalar tree8_network.node[15].core_layer 	data[15] 	1035
scalar tree8_network.node[15].content_store 	p_hit[15] 	0.97695288144651
scalar tree8_network.node[15].content_store 	hits[15] 	43873
scalar tree8_network.node[15].content_store 	misses[15] 	1035
scalar tree8_network.node[15].content_store 	decision_yes[15] 	286
scalar tree8_network.node[15].content_store 	decision_no[15] 	749
scalar tree8_network.node[15].content_store 	decision_ratio[15] 	0.27632850241546
scalar tree8_network.node[16].core_layer 	interests[16] 	45146
scalar tree8_network.node[16].core_layer 	data[16] 	889
scalar tree8_network.node[16].content_store 	p_hit[16] 	0.98030833296416
scalar tree8_network.node[16].content_store 	hits[16] 	44257
scalar tree8_network.node[16].content_store 	misses[16] 	889
scalar tree8_network.node[16].content_store 	decision_yes[16] 	252
scalar tree8_network.node[16].content_store 	decision_no[16] 	637
scalar tree8_network.node[16].content_store 	decision_ratio[16] 	0.28346456692913
scalar tree8_network.node[17].core_layer 	interests[17] 	45177
scalar tree8_network.node[17].core_layer 	data[17] 	975
scalar tree8_network.node[17].content_store 	p_hit[17] 	0.97841822166146
scalar tree8_network.node[17].content_store 	hits[17] 	44202
scalar tree8_network.node[17].content_store 	misses[17] 	975
scalar tree8_network.node[17].content_store 	decision_yes[17] 	279
scalar tree8_network.node[17].content_store 	decision_no[17] 	696
scalar tree8_network.node[17].content_store 	decision_ratio[17] 	0.28615384615385
scalar tree8_network.node[18].core_layer 	interests[18] 	44371
scalar tree8_network.node[18].core_layer 	data[18] 	998
scalar tree8_network.node[18].content_store 	p_hit[18] 	0.97750783169187
scalar tree8_network.node[18].content_store 	hits[18] 	43373
scalar tree8_network.node[18].content_store 	misses[18] 	998
scalar tree8_network.node[18].content_store 	decision_yes[18] 	296
scalar tree8_network.node[18].content_store 	decision_no[18] 	702
scalar tree8_network.node[18].content_store 	decision_ratio[18] 	0.29659318637275
scalar tree8_network.node[19].core_layer 	interests[19] 	44888
scalar tree8_network.node[19].core_layer 	data[19] 	1026
scalar tree8_network.node[19].content_store 	p_hit[19] 	0.97714311174479
scalar tree8_network.node[19].content_store 	hits[19] 	43862
scalar tree8_network.node[19].content_store 	misses[19] 	1026
scalar tree8_network.node[19].content_store 	decision_yes[19] 	297
scalar tree8_network.node[19].content_store 	decision_no[19] 	729
scalar tree8_network.node[19].content_store 	decision_ratio[19] 	0.28947368421053
scalar tree8_network.node[20].core_layer 	interests[20] 	44922
scalar tree8_network.node[20].core_layer 	data[20] 	976
scalar tree8_network.node[20].content_store 	p_hit[20] 	0.97827345176083
scalar tree8_network.node[20].content_store 	hits[20] 	43946
scalar tree8_network.node[20].content_store 	misses[20] 	976
scalar tree8_network.node[20].content_store 	decision_yes[20] 	275
scalar tree8_network.node[20].content_store 	decision_no[20] 	701
scalar tree8_network.node[20].content_store 	decision_ratio[20] 	0.28176229508197
scalar tree8_network.node[21].core_layer 	interests[21] 	44878
scalar tree8_network.node[21].core_layer 	data[21] 	1012
scalar tree8_network.node[21].content_store 	p_hit[21] 	0.9774499754891
scalar tree8_network.node[21].content_store 	hits[21] 	43866
scalar tree8_network.node[21].content_store 	misses[21] 	1012
scalar tree8_network.node[21].content_store 	decision_yes[21] 	294
scalar tree8_network.node[21].content_store 	decision_no[21] 	718
scalar tree8_network.node[21].content_store 	decision_ratio[21] 	0.29051383399209
scalar tree8_network.node[22].core_layer 	interests[22] 	44785
scalar tree8_network.node[22].core_layer 	data[22] 	965
scalar tree8_network.node[22].content_store 	p_hit[22] 	0.97845260689963
scalar tree8_network.node[22].content_store 	hits[22] 	43820
scalar tree8_network.node[22].content_store 	misses[22] 	965
scalar tree8_network.node[22].content_store 	decision_yes[22] 	277
scalar tree8_network.node[22].content_store 	decision_no[22] 	688
scalar tree8_network.node[22].content_store 	decision_ratio[22] 	0.28704663212435
scalar tree8_network.node[23].core_layer 	interests[23] 	45036
scalar tree8_network.node[23].core_layer 	data[23] 	939
scalar tree8_network.node[23].content_store 	p_hit[23] 	0.97915001332268
scalar tree8_network.node[23].content_store 	hits[23] 	44097
scalar tree8_network.node[23].content_store 	misses[23] 	939
scalar tree8_network.node[23].content_store 	decision_yes[23] 	259
scalar tree8_network.node[23].content_store 	decision_no[23] 	680
scalar tree8_network.node[23].content_store 	decision_ratio[23] 	0.27582534611289
scalar tree8_network.node[24].core_layer 	interests[24] 	44913
scalar tree8_network.node[24].core_layer 	data[24] 	1022
scalar tree8_network.node[24].content_store 	p_hit[24] 	0.97724489568722
scalar tree8_network.node[24].content_store 	hits[24] 	43891
scalar tree8_network.node[24].content_store 	misses[24] 	1022
scalar tree8_network.node[24].content_store 	decision_yes[24] 	263
scalar tree8_network.node[24].content_store 	decision_no[24] 	759
scalar tree8_network.node[24].content_store 	decision_ratio[24] 	0.2573385518591
scalar tree8_network.node[25].core_layer 	interests[25] 	44913
scalar tree8_network.node[25].core_layer 	data[25] 	984
scalar tree8_network.node[25].content_store 	p_hit[25] 	0.97809097588671
scalar tree8_network.node[25].content_store 	hits[25] 	43929
scalar tree8_network.node[25].content_store 	misses[25] 	984
scalar tree8_network.node[25].content_store 	decision_yes[25] 	266
scalar tree8_network.node[25].content_store 	decision_no[25] 	718
scalar tree8_network.node[25].content_store 	decision_ratio[25] 	0.27032520325203
scalar tree8_network.node[26].core_layer 	interests[26] 	45211
scalar tree8_network.node[26].core_layer 	data[26] 	944
scalar tree8_network.node[26].content_store 	p_hit[26] 	0.97912012563314
scalar tree8_network.node[26].content_store 	hits[26] 	44267
scalar tree8_network.node[26].content_store 	misses[26] 	944
scalar tree8_network.node[26].content_store 	decision_yes[26] 	265
scalar tree8_network.node[26].content_store 	decision_no[26] 	679
scalar tree8_network.node[26].content_store 	decision_ratio[26] 	0.28072033898305
scalar tree8_network.node[27].core_layer 	interests[27] 	44683
scalar tree8_network.node[27].core_layer 	data[27] 	939
scalar tree8_network.node[27].content_store 	p_hit[27] 	0.97898529642146
scalar tree8_network.node[27].content_store 	hits[27] 	43744
scalar tree8_network.node[27].content_store 	misses[27] 	939
scalar tree8_network.node[27].content_store 	decision_yes[27] 	274
scalar tree8_network.node[27].content_store 	decision_no[27] 	665
scalar tree8_network.node[27].content_store 	decision_ratio[27] 	0.29179978700745
scalar tree8_network.node[28].core_layer 	interests[28] 	44993
scalar tree8_network.node[28].core_layer 	data[28] 	1001
scalar tree8_network.node[28].content_store 	p_hit[28] 	0.9777520947703
scalar tree8_network.node[28].content_store 	hits[28] 	43992
scalar tree8_network.node[28].content_store 	misses[28] 	1001
scalar tree8_network.node[28].content_store 	decision_yes[28] 	272
scalar tree8_network.node[28].content_store 	decision_no[28] 	729
scalar tree8_network.node[28].content_store 	decision_ratio[28] 	0.27172827172827
scalar tree8_network.node[29].core_layer 	interests[29] 	44952
scalar tree8_network.node[29].core_layer 	data[29] 	930
scalar tree8_network.node[29].content_store 	p_hit[29] 	0.97931126534971
scalar tree8_network.node[29].content_store 	hits[29] 	44022
scalar tree8_network.node[29].content_store 	misses[29] 	930
scalar tree8_network.node[29].content_store 	decision_yes[29] 	269
scalar tree8_network.node[29].content_store 	decision_no[29] 	661
scalar tree8_network.node[29].content_store 	decision_ratio[29] 	0.28924731182796
scalar tree8_network.node[30].core_layer 	interests[30] 	44921
scalar tree8_network.node[30].core_layer 	data[30] 	955
scalar tree8_network.node[30].content_store 	p_hit[30] 	0.97874045546626
scalar tree8_network.node[30].content_store 	hits[30] 	43966
scalar tree8_network.node[30].content_store 	misses[30] 	955
scalar tree8_network.node[30].content_store 	decision_yes[30] 	269
scalar tree8_network.node[30].content_store 	decision_no[30] 	686
scalar tree8_network.node[30].content_store 	decision_ratio[30] 	0.28167539267016
scalar tree8_network.node[31].core_layer 	interests[31] 	8989
scalar tree8_network.node[31].core_layer 	data[31] 	8965
scalar tree8_network.node[31].content_store 	p_hit[31] 	0
scalar tree8_network.node[31].content_store 	hits[31] 	0
scalar tree8_network.node[31].content_store 	misses[31] 	8989
scalar tree8_network.node[31].content_store 	decision_yes[31] 	0
scalar tree8_network.node[31].content_store 	decision_no[31] 	8965
scalar tree8_network.node[31].content_store 	decision_ratio[31] 	0
scalar tree8_network.node[32].core_layer 	interests[32] 	8895
scalar tree8_network.node[32].core_layer 	data[32] 	8871
scalar tree8_network.node[32].content_store 	p_hit[32] 	0
scalar tree8_network.node[32].content_store 	hits[32] 	0
scalar tree8_network.node[32].content_store 	misses[32] 	8895
scalar tree8_network.node[32].content_store 	decision_yes[32] 	0
scalar tree8_network.node[32].content_store 	decision_no[32] 	8871
scalar tree8_network.node[32].content_store 	decision_ratio[32] 	0
scalar tree8_network.node[33].core_layer 	interests[33] 	8957
scalar tree8_network.node[33].core_layer 	data[33] 	8935
scalar tree8_network.node[33].content_store 	p_hit[33] 	0
scalar tree8_network.node[33].content_store 	hits[33] 	0
scalar tree8_network.node[33].content_store 	misses[33] 	8957
scalar tree8_network.node[33].content_store 	decision_yes[33] 	0
scalar tree8_network.node[33].content_store 	decision_no[33] 	8935
scalar tree8_network.node[33].content_store 	decision_ratio[33] 	0
scalar tree8_network.node[34].core_layer 	interests[34] 	8937
scalar tree8_network.node[34].core_layer 	data[34] 	8917
scalar tree8_network.node[34].content_store 	p_hit[34] 	0
scalar tree8_network.node[34].content_store 	hits[34] 	0
scalar tree8_network.node[34].content_store 	misses[34] 	8937
scalar tree8_network.node[34].content_store 	decision_yes[34] 	0
scalar tree8_network.node[34].content_store 	decision_no[34] 	8917
scalar tree8_network.node[34].content_store 	decision_ratio[34] 	0
scalar tree8_network.node[35].core_layer 	interests[35] 	8935
scalar tree8_network.node[35].core_layer 	data[35] 	8907
scalar tree8_network.node[35].content_store 	p_hit[35] 	0
scalar tree8_network.node[35].content_store 	hits[35] 	0
scalar tree8_network.node[35].content_store 	misses[35] 	8935
scalar tree8_network.node[35].content_store 	decision_yes[35] 	0
scalar tree8_network.node[35].content_store 	decision_no[35] 	8907
scalar tree8_network.node[35].content_store 	decision_ratio[35] 	0
scalar tree8_network.node[36].core_layer 	interests[36] 	9153
scalar tree8_network.node[36].core_layer 	data[36] 	9118
scalar tree8_network.node[36].content_store 	p_hit[36] 	0
scalar tree8_network.node[36].content_store 	hits[36] 	0
scalar tree8_network.node[36].content_store 	misses[36] 	9153
scalar tree8_network.node[36].content_store 	decision_yes[36] 	0
scalar tree8_network.node[36].content_store 	decision_no[36] 	9118
scalar tree8_network.node[36].content_store 	decision_ratio[36] 	0
scalar tree8_network.node[37].core_layer 	interests[37] 	8973
scalar tree8_network.node[37].core_layer 	data[37] 	8948
scalar tree8_network.node[37].content_store 	p_hit[37] 	0
scalar tree8_network.node[37].content_store 	hits[37] 	0
scalar tree8_network.node[37].content_store 	misses[37] 	8973
scalar tree8_network.node[37].content_store 	decision_yes[37] 	0
scalar tree8_network.node[37].content_store 	decision_no[37] 	8948
scalar tree8_network.node[37].content_store 	decision_ratio[37] 	0
scalar tree8_network.node[38].core_layer 	interests[38] 	9016
scalar tree8_network.node[38].core_layer 	data[38] 	8991
scalar tree8_network.node[38].content_store 	p_hit[38] 	0
scalar tree8_network.node[38].content_store 	hits[38] 	0
scalar tree8_network.node[38].content_store 	misses[38] 	9016
scalar tree8_network.node[38].content_store 	decision_yes[38] 	0
scalar tree8_network.node[38].content_store 	decision_no[38] 	8991
scalar tree8_network.node[38].content_store 	decision_ratio[38] 	0
scalar tree8_network.node[39].core_layer 	interests[39] 	9046
scalar tree8_network.node[39].core_layer 	data[39] 	9023
scalar tree8_network.node[39].content_store 	p_hit[39] 	0
scalar tree8_network.node[39].content_store 	hits[39] 	0
scalar tree8_network.node[39].content_store 	misses[39] 	9046
scalar tree8_network.node[39].content_store 	decision_yes[39] 	0
scalar tree8_network.node[39].content_store 	decision_no[39] 	9023
scalar tree8_network.node[39].content_store 	decision_ratio[39] 	0
scalar tree8_network.node[40].core_layer 	interests[40] 	8976
scalar tree8_network.node[40].core_layer 	data[40] 	8943
scalar tree8_network.node[40].content_store 	p_hit[40] 	0
scalar tree8_network.node[40].content_store 	hits[40] 	0
scalar tree8_network.node[40].content_store 	misses[40] 	8976
scalar tree8_network.node[40].content_store 	decision_yes[40] 	0
scalar tree8_network.node[40].content_store 	decision_no[40] 	8943
scalar tree8_network.node[40].content_store 	decision_ratio[40] 	0
scalar tree8_network.node[41].core_layer 	interests[41] 	9126
scalar tree8_network.node[41].core_layer 	data[41] 	9095
scalar tree8_network.node[41].content_store 	p_hit[41] 	0
scalar tree8_network.node[41].content_store 	hits[41] 	0
scalar tree8_network.node[41].content_store 	misses[41] 	9126
scalar tree8_network.node[41].content_store 	decision_yes[41] 	0
scalar tree8_network.node[41].content_store 	decision_no[41] 	9095
scalar tree8_network.node[41].content_store 	decision_ratio[41] 	0
scalar tree8_network.node[42].core_layer 	interests[42] 	8833
scalar tree8_network.node[42].core_layer 	data[42] 	8802
scalar tree8_network.node[42].content_store 	p_hit[42] 	0
scalar tree8_network.node[42].content_store 	hits[42] 	0
scalar tree8_network.node[42].content_store 	misses[42] 	8833
scalar tree8_network.node[42].content_store 	decision_yes[42] 	0
scalar tree8_network.node[42].content_store 	decision_no[42] 	8802
scalar tree8_network.node[42].content_store 	decision_ratio[42] 	0
scalar tree8_network.node[43].core_layer 	interests[43] 	8940
scalar tree8_network.node[43].core_layer 	data[43] 	8918
scalar tree8_network.node[43].content_store 	p_hit[43] 	0
scalar tree8_network.node[43].content_store 	hits[43] 	0
scalar tree8_network.node[43].content_store 	misses[43] 	8940
scalar tree8_network.node[43].content_store 	decision_yes[43] 	0
scalar tree8_network.node[43].content_store 	decision_no[43] 	8918
scalar tree8_network.node[43].content_store 	decision_ratio[43] 	0
scalar tree8_network.node[44].core_layer 	interests[44] 	9060
scalar tree8_network.node[44].core_layer 	data[44] 	9038
scalar tree8_network.node[44].content_store 	p_hit[44] 	0
scalar tree8_network.node[44].content_store 	hits[44] 	0
scalar tree8_network.node[44].content_store 	misses[44] 	9060
scalar tree8_network.node[44].content_store 	decision_yes[44] 	0
scalar tree8_network.node[44].content_store 	decision_no[44] 	9038
scalar tree8_network.node[44].content_store 	decision_ratio[44] 	0
scalar tree8_network.node[45].core_layer 	interests[45] 	9039
scalar tree8_network.node[45].core_layer 	data[45] 	9011
scalar tree8_network.node[45].content_store 	p_hit[45] 	0
scalar tree8_network.node[45].content_store 	hits[45] 	0
scalar tree8_network.node[45].content_store 	misses[45] 	9039
scalar tree8_network.node[45].content_store 	decision_yes[45] 	0
scalar tree8_network.node[45].content_store 	decision_no[45] 	9011
scalar tree8_network.node[45].content_store 	decision_ratio[45] 	0
scalar tree8_network.node[46].core_layer 	interests[46] 	9038
scalar tree8_network.node[46].core_layer 	data[46] 	9015
scalar tree8_network.node[46].content_store 	p_hit[46] 	0
scalar tree8_network.node[46].content_store 	hits[46] 	0
scalar tree8_network.node[46].content_store 	misses[46] 	9038
scalar tree8_network.node[46].content_store 	decision_yes[46] 	0
scalar tree8_network.node[46].content_store 	decision_no[46] 	9015
scalar tree8_network.node[46].content_store 	decision_ratio[46] 	0
scalar tree8_network.node[47].core_layer 	interests[47] 	8991
scalar tree8_network.node[47].core_layer 	data[47] 	8967
scalar tree8_network.node[47].content_store 	p_hit[47] 	0
scalar tree8_network.node[47].content_store 	hits[47] 	0
scalar tree8_network.node[47].content_store 	misses[47] 	8991
scalar tree8_network.node[47].content_store 	decision_yes[47] 	0
scalar tree8_network.node[47].content_store 	decision_no[47] 	8967
scalar tree8_network.node[47].content_store 	decision_ratio[47] 	0
scalar tree8_network.node[48].core_layer 	interests[48] 	9067
scalar tree8_network.node[48].core_layer 	data[48] 	9042
scalar tree8_network.node[48].content_store 	p_hit[48] 	0
scalar tree8_network.node[48].content_store 	hits[48] 	0
scalar tree8_network.node[48].content_store 	misses[48] 	9067
scalar tree8_network.node[48].content_store 	decision_yes[48] 	0
scalar tree8_network.node[48].content_store 	decision_no[48] 	9042
scalar tree8_network.node[48].content_store 	decision_ratio[48] 	0
scalar tree8_network.node[49].core_layer 	interests[49] 	8841
scalar tree8_network.node[49].core_layer 	data[49] 	8807
scalar tree8_network.node[49].content_store 	p_hit[49] 	0
scalar tree8_network.node[49].content_store 	hits[49] 	0
scalar tree8_network.node[49].content_store 	misses[49] 	8841
scalar tree8_network.node[49].content_store 	decision_yes[49] 	0
scalar tree8_network.node[49].content_store 	decision_no[49] 	8807
scalar tree8_network.node[49].content_store 	decision_ratio[49] 	0
scalar tree8_network.node[50].core_layer 	interests[50] 	9070
scalar tree8_network.node[50].core_layer 	data[50] 	9035
scalar tree8_network.node[50].content_store 	p_hit[50] 	0
scalar tree8_network.node[50].content_store 	hits[50] 	0
scalar tree8_network.node[50].content_store 	misses[50] 	9070
scalar tree8_network.node[50].content_store 	decision_yes[50] 	0
scalar tree8_network.node[50].content_store 	decision_no[50] 	9035
scalar tree8_network.node[50].content_store 	decision_ratio[50] 	0
scalar tree8_network.node[51].core_layer 	interests[51] 	9020
scalar tree8_network.node[51].core_layer 	data[51] 	8987
scalar tree8_network.node[51].content_store 	p_hit[51] 	0
scalar tree8_network.node[51].content_store 	hits[51] 	0
scalar tree8_network.node[51].content_store 	misses[51] 	9020
scalar tree8_network.node[51].content_store 	decision_yes[51] 	0
scalar tree8_network.node[51].content_store 	decision_no[51] 	8987
scalar tree8_network.node[51].content_store 	decision_ratio[51] 	0
scalar tree8_network.node[52].core_layer 	interests[52] 	8993
scalar tree8_network.node[52].core_layer 	data[52] 	8963
scalar tree8_network.node[52].content_store 	p_hit[52] 	0
scalar tree8_network.node[52].content_store 	hits[52] 	0
scalar tree8_network.node[52].content_store 	misses[52] 	8993
scalar tree8_network.node[52].content_store 	decision_yes[52] 	0
scalar tree8_network.node[52].content_store 	decision_no[52] 	8963
scalar tree8_network.node[52].content_store 	decision_ratio[52] 	0
scalar tree8_network.node[53].core_layer 	interests[53] 	9020
scalar tree8_network.node[53].core_layer 	data[53] 	8995
scalar tree8_network.node[53].content_store 	p_hit[53] 	0
scalar tree8_network.node[53].content_store 	hits[53] 	0
scalar tree8_network.node[53].content_store 	misses[53] 	9020
scalar tree8_network.node[53].content_store 	decision_yes[53] 	0
scalar tree8_network.node[53].content_store 	decision_no[53] 	8995
scalar tree8_network.node[53].content_store 	decision_ratio[53] 	0
scalar tree8_network.node[54].core_layer 	interests[54] 	9101
scalar tree8_network.node[54].core_layer 	data[54] 	9073
scalar tree8_network.node[54].content_store 	p_hit[54] 	0
scalar tree8_network.node[54].content_store 	hits[54] 	0
scalar tree8_network.node[54].content_store 	misses[54] 	9101
scalar tree8_network.node[54].content_store 	decision_yes[54] 	0
scalar tree8_network.node[54].content_store 	decision_no[54] 	9073
scalar tree8_network.node[54].content_store 	decision_ratio[54] 	0
scalar tree8_network.node[55].core_layer 	interests[55] 	9103
scalar tree8_network.node[55].core_layer 	data[55] 	9075
scalar tree8_network.node[55].content_store 	p_hit[55] 	0
scalar tree8_network.node[55].content_store 	hits[55] 	0
scalar tree8_network.node[55].content_store 	misses[55] 	9103
scalar tree8_network.node[55].content_store 	decision_yes[55] 	0
scalar tree8_network.node[55].content_store 	decision_no[55] 	9075
scalar tree8_network.node[55].content_store 	decision_ratio[55] 	0
scalar tree8_network.node[56].core_layer 	interests[56] 	9130
scalar tree8_network.node[56].core_layer 	data[56] 	9105
scalar tree8_network.node[56].content_store 	p_hit[56] 	0
scalar tree8_network.node[56].content_store 	hits[56] 	0
scalar tree8_network.node[56].content_store 	misses[56] 	9130
scalar tree8_network.node[56].content_store 	decision_yes[56] 	0
scalar tree8_network.node[56].content_store 	decision_no[56] 	9105
scalar tree8_network.node[56].content_store 	decision_ratio[56] 	0
scalar tree8_network.node[57].core_layer 	interests[57] 	8858
scalar tree8_network.node[57].core_layer 	data[57] 	8840
scalar tree8_network.node[57].content_store 	p_hit[57] 	0
scalar tree8_network.node[57].content_store 	hits[57] 	0
scalar tree8_network.node[57].content_store 	misses[57] 	8858
scalar tree8_network.node[57].content_store 	decision_yes[57] 	0
scalar tree8_network.node[57].content_store 	decision_no[57] 	8840
scalar tree8_network.node[57].content_store 	decision_ratio[57] 	0
scalar tree8_network.node[58].core_layer 	interests[58] 	8993
scalar tree8_network.node[58].core_layer 	data[58] 	8964
scalar tree8_network.node[58].content_store 	p_hit[58] 	0
scalar tree8_network.node[58].content_store 	hits[58] 	0
scalar tree8_network.node[58].content_store 	misses[58] 	8993
scalar tree8_network.node[58].content_store 	decision_yes[58] 	0
scalar tree8_network.node[58].content_store 	decision_no[58] 	8964
scalar tree8_network.node[58].content_store 	decision_ratio[58] 	0
scalar tree8_network.node[59].core_layer 	interests[59] 	9049
scalar tree8_network.node[59].core_layer 	data[59] 	9007
scalar tree8_network.node[59].content_store 	p_hit[59] 	0
scalar tree8_network.node[59].content_store 	hits[59] 	0
scalar tree8_network.node[59].content_store 	misses[59] 	9049
scalar tree8_network.node[59].content_store 	decision_yes[59] 	0
scalar tree8_network.node[59].content_store 	decision_no[59] 	9007
scalar tree8_network.node[59].content_store 	decision_ratio[59] 	0
scalar tree8_network.node[60].core_layer 	interests[60] 	8835
scalar tree8_network.node[60].core_layer 	data[60] 	8806
scalar tree8_network.node[60].content_store 	p_hit[60] 	0
scalar tree8_network.node[60].content_store 	hits[60] 	0
scalar tree8_network.node[60].content_store 	misses[60] 	8835
scalar tree8_network.node[60].content_store 	decision_yes[60] 	0
scalar tree8_network.node[60].content_store 	decision_no[60] 	8806
scalar tree8_network.node[60].content_store 	decision_ratio[60] 	0
scalar tree8_network.node[61].core_layer 	interests[61] 	8975
scalar tree8_network.node[61].core_layer 	data[61] 	8948
scalar tree8_network.node[61].content_store 	p_hit[61] 	0
scalar tree8_network.node[61].content_store 	hits[61] 	0
scalar tree8_network.node[61].content_store 	misses[61] 	8975
scalar tree8_network.node[61].content_store 	decision_yes[61] 	0
scalar tree8_network.node[61].content_store 	decision_no[61] 	8948
scalar tree8_network.node[61].content_store 	decision_ratio[61] 	0
scalar tree8_network.node[62].core_layer 	interests[62] 	9103
scalar tree8_network.node[62].core_layer 	data[62] 	9070
scalar tree8_network.node[62].content_store 	p_hit[62] 	0
scalar tree8_network.node[62].content_store 	hits[62] 	0
scalar tree8_network.node[62].content_store 	misses[62] 	9103
scalar tree8_network.node[62].content_store 	decision_yes[62] 	0
scalar tree8_network.node[62].content_store 	decision_no[62] 	9070
scalar tree8_network.node[62].content_store 	decision_ratio[62] 	0
scalar tree8_network.node[63].core_layer 	interests[63] 	9021
scalar tree8_network.node[63].core_layer 	data[63] 	9006
scalar tree8_network.node[63].content_store 	p_hit[63] 	0
scalar tree8_network.node[63].content_store 	hits[63] 	0
scalar tree8_network.node[63].content_store 	misses[63] 	9021
scalar tree8_network.node[63].content_store 	decision_yes[63] 	0
scalar tree8_network.node[63].content_store 	decision_no[63] 	9006
scalar tree8_network.node[63].content_store 	decision_ratio[63] 	0
scalar tree8_network.node[64].core_layer 	interests[64] 	9074
scalar tree8_network.node[64].core_layer 	data[64] 	9047
scalar tree8_network.node[64].content_store 	p_hit[64] 	0
scalar tree8_network.node[64].content_store 	hits[64] 	0
scalar tree8_network.node[64].content_store 	misses[64] 	9074
scalar tree8_network.node[64].content_store 	decision_yes[64] 	0
scalar tree8_network.node[64].content_store 	decision_no[64] 	9047
scalar tree8_network.node[64].content_store 	decision_ratio[64] 	0
scalar tree8_network.node[65].core_layer 	interests[65] 	9041
scalar tree8_network.node[65].core_layer 	data[65] 	9017
scalar tree8_network.node[65].content_store 	p_hit[65] 	0
scalar tree8_network.node[65].content_store 	hits[65] 	0
scalar tree8_network.node[65].content_store 	misses[65] 	9041
scalar tree8_network.node[65].content_store 	decision_yes[65] 	0
scalar tree8_network.node[65].content_store 	decision_no[65] 	9017
scalar tree8_network.node[65].content_store 	decision_ratio[65] 	0
scalar tree8_network.node[66].core_layer 	interests[66] 	9164
scalar tree8_network.node[66].core_layer 	data[66] 	9143
scalar tree8_network.node[66].content_store 	p_hit[66] 	0
scalar tree8_network.node[66].content_store 	hits[66] 	0
scalar tree8_network.node[66].content_store 	misses[66] 	9164
scalar tree8_network.node[66].content_store 	decision_yes[66] 	0
scalar tree8_network.node[66].content_store 	decision_no[66] 	9143
scalar tree8_network.node[66].content_store 	decision_ratio[66] 	0
scalar tree8_network.node[67].core_layer 	interests[67] 	8748
scalar tree8_network.node[67].core_layer 	data[67] 	8730
scalar tree8_network.node[67].content_store 	p_hit[67] 	0
scalar tree8_network.node[67].content_store 	hits[67] 	0
scalar tree8_network.node[67].content_store 	misses[67] 	8748
scalar tree8_network.node[67].content_store 	decision_yes[67] 	0
scalar tree8_network.node[67].content_store 	decision_no[67] 	8730
scalar tree8_network.node[67].content_store 	decision_ratio[67] 	0
scalar tree8_network.node[68].core_layer 	interests[68] 	9078
scalar tree8_network.node[68].core_layer 	data[68] 	9050
scalar tree8_network.node[68].content_store 	p_hit[68] 	0
scalar tree8_network.node[68].content_store 	hits[68] 	0
scalar tree8_network.node[68].content_store 	misses[68] 	9078
scalar tree8_network.node[68].content_store 	decision_yes[68] 	0
scalar tree8_network.node[68].content_store 	decision_no[68] 	9050
scalar tree8_network.node[68].content_store 	decision_ratio[68] 	0
scalar tree8_network.node[69].core_layer 	interests[69] 	9066
scalar tree8_network.node[69].core_layer 	data[69] 	9035
scalar tree8_network.node[69].content_store 	p_hit[69] 	0
scalar tree8_network.node[69].content_store 	hits[69] 	0
scalar tree8_network.node[69].content_store 	misses[69] 	9066
scalar tree8_network.node[69].content_store 	decision_yes[69] 	0
scalar tree8_network.node[69].content_store 	decision_no[69] 	9035
scalar tree8_network.node[69].content_store 	decision_ratio[69] 	0
scalar tree8_network.node[70].core_layer 	interests[70] 	8960
scalar tree8_network.node[70].core_layer 	data[70] 	8935
scalar tree8_network.node[70].content_store 	p_hit[70] 	0
scalar tree8_network.node[70].content_store 	hits[70] 	0
scalar tree8_network.node[70].content_store 	misses[70] 	8960
scalar tree8_network.node[70].content_store 	decision_yes[70] 	0
scalar tree8_network.node[70].content_store 	decision_no[70] 	8935
scalar tree8_network.node[70].content_store 	decision_ratio[70] 	0
scalar tree8_network.node[71].core_layer 	interests[71] 	8860
scalar tree8_network.node[71].core_layer 	data[71] 	8838
scalar tree8_network.node[71].content_store 	p_hit[71] 	0
scalar tree8_network.node[71].content_store 	hits[71] 	0
scalar tree8_network.node[71].content_store 	misses[71] 	8860
scalar tree8_network.node[71].content_store 	decision_yes[71] 	0
scalar tree8_network.node[71].content_store 	decision_no[71] 	8838
scalar tree8_network.node[71].content_store 	decision_ratio[71] 	0
scalar tree8_network.node[72].core_layer 	interests[72] 	9039
scalar tree8_network.node[72].core_layer 	data[72] 	9022
scalar tree8_network.node[72].content_store 	p_hit[72] 	0
scalar tree8_network.node[72].content_store 	hits[72] 	0
scalar tree8_network.node[72].content_store 	misses[72] 	9039
scalar tree8_network.node[72].content_store 	decision_yes[72] 	0
scalar tree8_network.node[72].content_store 	decision_no[72] 	9022
scalar tree8_network.node[72].content_store 	decision_ratio[72] 	0
scalar tree8_network.node[73].core_layer 	interests[73] 	8953
scalar tree8_network.node[73].core_layer 	data[73] 	8928
scalar tree8_network.node[73].content_store 	p_hit[73] 	0
scalar tree8_network.node[73].content_store 	hits[73] 	0
scalar tree8_network.node[73].content_store 	misses[73] 	8953
scalar tree8_network.node[73].content_store 	decision_yes[73] 	0
scalar tree8_network.node[73].content_store 	decision_no[73] 	8928
scalar tree8_network.node[73].content_store 	decision_ratio[73] 	0
scalar tree8_network.node[74].core_layer 	interests[74] 	9093
scalar tree8_network.node[74].core_layer 	data[74] 	9067
scalar tree8_network.node[74].content_store 	p_hit[74] 	0
scalar tree8_network.node[74].content_store 	hits[74] 	0
scalar tree8_network.node[74].content_store 	misses[74] 	9093
scalar tree8_network.node[74].content_store 	decision_yes[74] 	0
scalar tree8_network.node[74].content_store 	decision_no[74] 	9067
scalar tree8_network.node[74].content_store 	decision_ratio[74] 	0
scalar tree8_network.node[75].core_layer 	interests[75] 	8848
scalar tree8_network.node[75].core_layer 	data[75] 	8825
scalar tree8_network.node[75].content_store 	p_hit[75] 	0
scalar tree8_network.node[75].content_store 	hits[75] 	0
scalar tree8_network.node[75].content_store 	misses[75] 	8848
scalar tree8_network.node[75].content_store 	decision_yes[75] 	0
scalar tree8_network.node[75].content_store 	decision_no[75] 	8825
scalar tree8_network.node[75].content_store 	decision_ratio[75] 	0
scalar tree8_network.node[76].core_layer 	interests[76] 	9046
scalar tree8_network.node[76].core_layer 	data[76] 	9012
scalar tree8_network.node[76].content_store 	p_hit[76] 	0
scalar tree8_network.node[76].content_store 	hits[76] 	0
scalar tree8_network.node[76].content_store 	misses[76] 	9046
scalar tree8_network.node[76].content_store 	decision_yes[76] 	0
scalar tree8_network.node[76].content_store 	decision_no[76] 	9012
scalar tree8_network.node[76].content_store 	decision_ratio[76] 	0
scalar tree8_network.node[77].core_layer 	interests[77] 	8939
scalar tree8_network.node[77].core_layer 	data[77] 	8910
scalar tree8_network.node[77].content_store 	p_hit[77] 	0
scalar tree8_network.node[77].content_store 	hits[77] 	0
scalar tree8_network.node[77].content_store 	misses[77] 	8939
scalar tree8_network.node[77].content_store 	decision_yes[77] 	0
scalar tree8_network.node[77].content_store 	decision_no[77] 	8910
scalar tree8_network.node[77].content_store 	decision_ratio[77] 	0
scalar tree8_network.node[78].core_layer 	interests[78] 	9062
scalar tree8_network.node[78].core_layer 	data[78] 	9033
scalar tree8_network.node[78].content_store 	p_hit[78] 	0
scalar tree8_network.node[78].content_store 	hits[78] 	0
scalar tree8_network.node[78].content_store 	misses[78] 	9062
scalar tree8_network.node[78].content_store 	decision_yes[78] 	0
scalar tree8_network.node[78].content_store 	decision_no[78] 	9033
scalar tree8_network.node[78].content_store 	decision_ratio[78] 	0
scalar tree8_network.node[79].core_layer 	interests[79] 	8998
scalar tree8_network.node[79].core_layer 	data[79] 	8969
scalar tree8_network.node[79].content_store 	p_hit[79] 	0
scalar tree8_network.node[79].content_store 	hits[79] 	0
scalar tree8_network.node[79].content_store 	misses[79] 	8998
scalar tree8_network.node[79].content_store 	decision_yes[79] 	0
scalar tree8_network.node[79].content_store 	decision_no[79] 	8969
scalar tree8_network.node[79].content_store 	decision_ratio[79] 	0
scalar tree8_network.node[80].core_layer 	interests[80] 	9016
scalar tree8_network.node[80].core_layer 	data[80] 	8984
scalar tree8_network.node[80].content_store 	p_hit[80] 	0
scalar tree8_network.node[80].content_store 	hits[80] 	0
scalar tree8_network.node[80].content_store 	misses[80] 	9016
scalar tree8_network.node[80].content_store 	decision_yes[80] 	0
scalar tree8_network.node[80].content_store 	decision_no[80] 	8984
scalar tree8_network.node[80].content_store 	decision_ratio[80] 	0
scalar tree8_network.node[81].core_layer 	interests[81] 	8987
scalar tree8_network.node[81].core_layer 	data[81] 	8965
scalar tree8_network.node[81].content_store 	p_hit[81] 	0
scalar tree8_network.node[81].content_store 	hits[81] 	0
scalar tree8_network.node[81].content_store 	misses[81] 	8987
scalar tree8_network.node[81].content_store 	decision_yes[81] 	0
scalar tree8_network.node[81].content_store 	decision_no[81] 	8965
scalar tree8_network.node[81].content_store 	decision_ratio[81] 	0
scalar tree8_network.node[82].core_layer 	interests[82] 	9173
scalar tree8_network.node[82].core_layer 	data[82] 	9151
scalar tree8_network.node[82].content_store 	p_hit[82] 	0
scalar tree8_network.node[82].content_store 	hits[82] 	0
scalar tree8_network.node[82].content_store 	misses[82] 	9173
scalar tree8_network.node[82].content_store 	decision_yes[82] 	0
scalar tree8_network.node[82].content_store 	decision_no[82] 	9151
scalar tree8_network.node[82].content_store 	decision_ratio[82] 	0
scalar tree8_network.node[83].core_layer 	interests[83] 	8824
scalar tree8_network.node[83].core_layer 	data[83] 	8802
scalar tree8_network.node[83].content_store 	p_hit[83] 	0
scalar tree8_network.node[83].content_store 	hits[83] 	0
scalar tree8_network.node[83].content_store 	misses[83] 	8824
scalar tree8_network.node[83].content_store 	decision_yes[83] 	0
scalar tree8_network.node[83].content_store 	decision_no[83] 	8802
scalar tree8_network.node[83].content_store 	decision_ratio[83] 	0
scalar tree8_network.node[84].core_layer 	interests[84] 	9165
scalar tree8_network.node[84].core_layer 	data[84] 	9132
scalar tree8_network.node[84].content_store 	p_hit[84] 	0
scalar tree8_network.node[84].content_store 	hits[84] 	0
scalar tree8_network.node[84].content_store 	misses[84] 	9165
scalar tree8_network.node[84].content_store 	decision_yes[84] 	0
scalar tree8_network.node[84].content_store 	decision_no[84] 	9132
scalar tree8_network.node[84].content_store 	decision_ratio[84] 	0
scalar tree8_network.node[85].core_layer 	interests[85] 	9131
scalar tree8_network.node[85].core_layer 	data[85] 	9096
scalar tree8_network.node[85].content_store 	p_hit[85] 	0
scalar tree8_network.node[85].content_store 	hits[85] 	0
scalar tree8_network.node[85].content_store 	misses[85] 	9131
scalar tree8_network.node[85].content_store 	decision_yes[85] 	0
scalar tree8_network.node[85].content_store 	decision_no[85] 	9096
scalar tree8_network.node[85].content_store 	decision_ratio[85] 	0
scalar tree8_network.node[86].core_layer 	interests[86] 	9079
scalar tree8_network.node[86].core_layer 	data[86] 	9042
scalar tree8_network.node[86].content_store 	p_hit[86] 	0
scalar tree8_network.node[86].content_store 	hits[86] 	0
scalar tree8_network.node[86].content_store 	misses[86] 	9079
scalar tree8_network.node[86].content_store 	decision_yes[86] 	0
scalar tree8_network.node[86].content_store 	decision_no[86] 	9042
scalar tree8_network.node[86].content_store 	decision_ratio[86] 	0
scalar tree8_network.node[87].core_layer 	interests[87] 	9008
scalar tree8_network.node[87].core_layer 	data[87] 	8978
scalar tree8_network.node[87].content_store 	p_hit[87] 	0
scalar tree8_network.node[87].content_store 	hits[87] 	0
scalar tree8_network.node[87].content_store 	misses[87] 	9008
scalar tree8_network.node[87].content_store 	decision_yes[87] 	0
scalar tree8_network.node[87].content_store 	decision_no[87] 	8978
scalar tree8_network.node[87].content_store 	decision_ratio[87] 	0
scalar tree8_network.node[88].core_layer 	interests[88] 	9109
scalar tree8_network.node[88].core_layer 	data[88] 	9083
scalar tree8_network.node[88].content_store 	p_hit[88] 	0
scalar tree8_network.node[88].content_store 	hits[88] 	0
scalar tree8_network.node[88].content_store 	misses[88] 	9109
scalar tree8_network.node[88].content_store 	decision_yes[88] 	0
scalar tree8_network.node[88].content_store 	decision_no[88] 	9083
scalar tree8_network.node[88].content_store 	decision_ratio[88] 	0
scalar tree8_network.node[89].core_layer 	interests[89] 	9110
scalar tree8_network.node[89].core_layer 	data[89] 	9068
scalar tree8_network.node[89].content_store 	p_hit[89] 	0
scalar tree8_network.node[89].content_store 	hits[89] 	0
scalar tree8_network.node[89].content_store 	misses[89] 	9110
scalar tree8_network.node[89].content_store 	decision_yes[89] 	0
scalar tree8_network.node[89].content_store 	decision_no[89] 	9068
scalar tree8_network.node[89].content_store 	decision_ratio[89] 	0
scalar tree8_network.node[90].core_layer 	interests[90] 	9037
scalar tree8_network.node[90].core_layer 	data[90] 	9006
scalar tree8_network.node[90].content_store 	p_hit[90] 	0
scalar tree8_network.node[90].content_store 	hits[90] 	0
scalar tree8_network.node[90].content_store 	misses[90] 	9037
scalar tree8_network.node[90].content_store 	decision_yes[90] 	0
scalar tree8_network.node[90].content_store 	decision_no[90] 	9006
scalar tree8_network.node[90].content_store 	decision_ratio[90] 	0
scalar tree8_network.node[91].core_layer 	interests[91] 	8959
scalar tree8_network.node[91].core_layer 	data[91] 	8932
scalar tree8_network.node[91].content_store 	p_hit[91] 	0
scalar tree8_network.node[91].content_store 	hits[91] 	0
scalar tree8_network.node[91].content_store 	misses[91] 	8959
scalar tree8_network.node[91].content_store 	decision_yes[91] 	0
scalar tree8_network.node[91].content_store 	decision_no[91] 	8932
scalar tree8_network.node[91].content_store 	decision_ratio[91] 	0
scalar tree8_network.node[92].core_layer 	interests[92] 	8909
scalar tree8_network.node[92].core_layer 	data[92] 	8886
scalar tree8_network.node[92].content_store 	p_hit[92] 	0
scalar tree8_network.node[92].content_store 	hits[92] 	0
scalar tree8_network.node[92].content_store 	misses[92] 	8909
scalar tree8_network.node[92].content_store 	decision_yes[92] 	0
scalar tree8_network.node[92].content_store 	decision_no[92] 	8886
scalar tree8_network.node[92].content_store 	decision_ratio[92] 	0
scalar tree8_network.node[93].core_layer 	interests[93] 	8817
scalar tree8_network.node[93].core_layer 	data[93] 	8799
scalar tree8_network.node[93].content_store 	p_hit[93] 	0
scalar tree8_network.node[93].content_store 	hits[93] 	0
scalar tree8_network.node[93].content_store 	misses[93] 	8817
scalar tree8_network.node[93].content_store 	decision_yes[93] 	0
scalar tree8_network.node[93].content_store 	decision_no[93] 	8799
scalar tree8_network.node[93].content_store 	decision_ratio[93] 	0
scalar tree8_network.node[94].core_layer 	interests[94] 	8821
scalar tree8_network.node[94].core_layer 	data[94] 	8795
scalar tree8_network.node[94].content_store 	p_hit[94] 	0
scalar tree8_network.node[94].content_store 	hits[94] 	0
scalar tree8_network.node[94].content_store 	misses[94] 	8821
scalar tree8_network.node[94].content_store 	decision_yes[94] 	0
scalar tree8_network.node[94].content_store 	decision_no[94] 	8795
scalar tree8_network.node[94].content_store 	decision_ratio[94] 	0
scalar tree8_network.node[95].core_layer 	interests[95] 	8984
scalar tree8_network.node[95].core_layer 	data[95] 	8959
scalar tree8_network.node[95].content_store 	p_hit[95] 	0
scalar tree8_network.node[95].content_store 	hits[95] 	0
scalar tree8_network.node[95].content_store 	misses[95] 	8984
scalar tree8_network.node[95].content_store 	decision_yes[95] 	0
scalar tree8_network.node[95].content_store 	decision_no[95] 	8959
scalar tree8_network.node[95].content_store 	decision_ratio[95] 	0
scalar tree8_network.node[96].core_layer 	interests[96] 	8923
scalar tree8_network.node[96].core_layer 	data[96] 	8894
scalar tree8_network.node[96].content_store 	p_hit[96] 	0
scalar tree8_network.node[96].content_store 	hits[96] 	0
scalar tree8_network.node[96].content_store 	misses[96] 	8923
scalar tree8_network.node[96].content_store 	decision_yes[96] 	0
scalar tree8_network.node[96].content_store 	decision_no[96] 	8894
scalar tree8_network.node[96].content_store 	decision_ratio[96] 	0
scalar tree8_network.node[97].core_layer 	interests[97] 	9107
scalar tree8_network.node[97].core_layer 	data[97] 	9079
scalar tree8_network.node[97].content_store 	p_hit[97] 	0
scalar tree8_network.node[97].content_store 	hits[97] 	0
scalar tree8_network.node[97].content_store 	misses[97] 	9107
scalar tree8_network.node[97].content_store 	decision_yes[97] 	0
scalar tree8_network.node[97].content_store 	decision_no[97] 	9079
scalar tree8_network.node[97].content_store 	decision_ratio[97] 	0
scalar tree8_network.node[98].core_layer 	interests[98] 	9106
scalar tree8_network.node[98].core_layer 	data[98] 	9085
scalar tree8_network.node[98].content_store 	p_hit[98] 	0
scalar tree8_network.node[98].content_store 	hits[98] 	0
scalar tree8_network.node[98].content_store 	misses[98] 	9106
scalar tree8_network.node[98].content_store 	decision_yes[98] 	0
scalar tree8_network.node[98].content_store 	decision_no[98] 	9085
scalar tree8_network.node[98].content_store 	decision_ratio[98] 	0
scalar tree8_network.node[99].core_layer 	interests[99] 	8899
scalar tree8_network.node[99].core_layer 	data[99] 	8872
scalar tree8_network.node[99].content_store 	p_hit[99] 	0
scalar tree8_network.node[99].content_store 	hits[99] 	0
scalar tree8_network.node[99].content_store 	misses[99] 	8899
scalar tree8_network.node[99].content_store 	decision_yes[99] 	0
scalar tree8_network.node[99].content_store 	decision_no[99] 	8872
scalar tree8_network.node[99].content_store 	decision_ratio[99] 	0
scalar tree8_network.node[100].core_layer 	interests[100] 	8994
scalar tree8_network.node[100].core_layer 	data[100] 	8958
scalar tree8_network.node[100].content_store 	p_hit[100] 	0
scalar tree8_network.node[100].content_store 	hits[100] 	0
scalar tree8_network.node[100].content_store 	misses[100] 	8994
scalar tree8_network.node[100].content_store 	decision_yes[100] 	0
scalar tree8_network.node[100].content_store 	decision_no[100] 	8958
scalar tree8_network.node[100].content_store 	decision_ratio[100] 	0
scalar tree8_network.node[101].core_layer 	interests[101] 	8996
scalar tree8_network.node[101].core_layer 	data[101] 	8964
scalar tree8_network.node[101].content_store 	p_hit[101] 	0
scalar tree8_network.node[101].content_store 	hits[101] 	0
scalar tree8_network.node[101].content_store 	misses[101] 	8996
scalar tree8_network.node[101].content_store 	decision_yes[101] 	0
scalar tree8_network.node[101].content_store 	decision_no[101] 	8964
scalar tree8_network.node[101].content_store 	decision_ratio[101] 	0
scalar tree8_network.node[102].core_layer 	interests[102] 	9056
scalar tree8_network.node[102].core_layer 	data[102] 	9035
scalar tree8_network.node[102].content_store 	p_hit[102] 	0
scalar tree8_network.node[102].content_store 	hits[102] 	0
scalar tree8_network.node[102].content_store 	misses[102] 	9056
scalar tree8_network.node[102].content_store 	decision_yes[102] 	0
scalar tree8_network.node[102].content_store 	decision_no[102] 	9035
scalar tree8_network.node[102].content_store 	decision_ratio[102] 	0
scalar tree8_network.node[103].core_layer 	interests[103] 	9162
scalar tree8_network.node[103].core_layer 	data[103] 	9131
scalar tree8_network.node[103].content_store 	p_hit[103] 	0
scalar tree8_network.node[103].content_store 	hits[103] 	0
scalar tree8_network.node[103].content_store 	misses[103] 	9162
scalar tree8_network.node[103].content_store 	decision_yes[103] 	0
scalar tree8_network.node[103].content_store 	decision_no[103] 	9131
scalar tree8_network.node[103].content_store 	decision_ratio[103] 	0
scalar tree8_network.node[104].core_layer 	interests[104] 	9025
scalar tree8_network.node[104].core_layer 	data[104] 	8996
scalar tree8_network.node[104].content_store 	p_hit[104] 	0
scalar tree8_network.node[104].content_store 	hits[104] 	0
scalar tree8_network.node[104].content_store 	misses[104] 	9025
scalar tree8_network.node[104].content_store 	decision_yes[104] 	0
scalar tree8_network.node[104].content_store 	decision_no[104] 	8996
scalar tree8_network.node[104].content_store 	decision_ratio[104] 	0
scalar tree8_network.node[105].core_layer 	interests[105] 	8833
scalar tree8_network.node[105].core_layer 	data[105] 	8796
scalar tree8_network.node[105].content_store 	p_hit[105] 	0
scalar tree8_network.node[105].content_store 	hits[105] 	0
scalar tree8_network.node[105].content_store 	misses[105] 	8833
scalar tree8_network.node[105].content_store 	decision_yes[105] 	0
scalar tree8_network.node[105].content_store 	decision_no[105] 	8796
scalar tree8_network.node[105].content_store 	decision_ratio[105] 	0
scalar tree8_network.node[106].core_layer 	interests[106] 	8886
scalar tree8_network.node[106].core_layer 	data[106] 	8866
scalar tree8_network.node[106].content_store 	p_hit[106] 	0
scalar tree8_network.node[106].content_store 	hits[106] 	0
scalar tree8_network.node[106].content_store 	misses[106] 	8886
scalar tree8_network.node[106].content_store 	decision_yes[106] 	0
scalar tree8_network.node[106].content_store 	decision_no[106] 	8866
scalar tree8_network.node[106].content_store 	decision_ratio[106] 	0
scalar tree8_network.node[107].core_layer 	interests[107] 	9098
scalar tree8_network.node[107].core_layer 	data[107] 	9073
scalar tree8_network.node[107].content_store 	p_hit[107] 	0
scalar tree8_network.node[107].content_store 	hits[107] 	0
scalar tree8_network.node[107].content_store 	misses[107] 	9098
scalar tree8_network.node[107].content_store 	decision_yes[107] 	0
scalar tree8_network.node[107].content_store 	decision_no[107] 	9073
scalar tree8_network.node[107].content_store 	decision_ratio[107] 	0
scalar tree8_network.node[108].core_layer 	interests[108] 	9036
scalar tree8_network.node[108].core_layer 	data[108] 	9003
scalar tree8_network.node[108].content_store 	p_hit[108] 	0
scalar tree8_network.node[108].content_store 	hits[108] 	0
scalar tree8_network.node[108].content_store 	misses[108] 	9036
scalar tree8_network.node[108].content_store 	decision_yes[108] 	0
scalar tree8_network.node[108].content_store 	decision_no[108] 	9003
scalar tree8_network.node[108].content_store 	decision_ratio[108] 	0
scalar tree8_network.node[109].core_layer 	interests[109] 	8790
scalar tree8_network.node[109].core_layer 	data[109] 	8760
scalar tree8_network.node[109].content_store 	p_hit[109] 	0
scalar tree8_network.node[109].content_store 	hits[109] 	0
scalar tree8_network.node[109].content_store 	misses[109] 	8790
scalar tree8_network.node[109].content_store 	decision_yes[109] 	0
scalar tree8_network.node[109].content_store 	decision_no[109] 	8760
scalar tree8_network.node[109].content_store 	decision_ratio[109] 	0
scalar tree8_network.node[110].core_layer 	interests[110] 	9204
scalar tree8_network.node[110].core_layer 	data[110] 	9176
scalar tree8_network.node[110].content_store 	p_hit[110] 	0
scalar tree8_network.node[110].content_store 	hits[110] 	0
scalar tree8_network.node[110].content_store 	misses[110] 	9204
scalar tree8_network.node[110].content_store 	decision_yes[110] 	0
scalar tree8_network.node[110].content_store 	decision_no[110] 	9176
scalar tree8_network.node[110].content_store 	decision_ratio[110] 	0
scalar tree8_network.node[111].core_layer 	interests[111] 	9026
scalar tree8_network.node[111].core_layer 	data[111] 	9006
scalar tree8_network.node[111].content_store 	p_hit[111] 	0
scalar tree8_network.node[111].content_store 	hits[111] 	0
scalar tree8_network.node[111].content_store 	misses[111] 	9026
scalar tree8_network.node[111].content_store 	decision_yes[111] 	0
scalar tree8_network.node[111].content_store 	decision_no[111] 	9006
scalar tree8_network.node[111].content_store 	decision_ratio[111] 	0
scalar tree8_network.node[112].core_layer 	interests[112] 	9002
scalar tree8_network.node[112].core_layer 	data[112] 	8965
scalar tree8_network.node[112].content_store 	p_hit[112] 	0
scalar tree8_network.node[112].content_store 	hits[112] 	0
scalar tree8_network.node[112].content_store 	misses[112] 	9002
scalar tree8_network.node[112].content_store 	decision_yes[112] 	0
scalar tree8_network.node[112].content_store 	decision_no[112] 	8965
scalar tree8_network.node[112].content_store 	decision_ratio[112] 	0
scalar tree8_network.node[113].core_layer 	interests[113] 	8914
scalar tree8_network.node[113].core_layer 	data[113] 	8884
scalar tree8_network.node[113].content_store 	p_hit[113] 	0
scalar tree8_network.node[113].content_store 	hits[113] 	0
scalar tree8_network.node[113].content_store 	misses[113] 	8914
scalar tree8_network.node[113].content_store 	decision_yes[113] 	0
scalar tree8_network.node[113].content_store 	decision_no[113] 	8884
scalar tree8_network.node[113].content_store 	decision_ratio[113] 	0
scalar tree8_network.node[114].core_layer 	interests[114] 	9084
scalar tree8_network.node[114].core_layer 	data[114] 	9062
scalar tree8_network.node[114].content_store 	p_hit[114] 	0
scalar tree8_network.node[114].content_store 	hits[114] 	0
scalar tree8_network.node[114].content_store 	misses[114] 	9084
scalar tree8_network.node[114].content_store 	decision_yes[114] 	0
scalar tree8_network.node[114].content_store 	decision_no[114] 	9062
scalar tree8_network.node[114].content_store 	decision_ratio[114] 	0
scalar tree8_network.node[115].core_layer 	interests[115] 	8882
scalar tree8_network.node[115].core_layer 	data[115] 	8868
scalar tree8_network.node[115].content_store 	p_hit[115] 	0
scalar tree8_network.node[115].content_store 	hits[115] 	0
scalar tree8_network.node[115].content_store 	misses[115] 	8882
scalar tree8_network.node[115].content_store 	decision_yes[115] 	0
scalar tree8_network.node[115].content_store 	decision_no[115] 	8868
scalar tree8_network.node[115].content_store 	decision_ratio[115] 	0
scalar tree8_network.node[116].core_layer 	interests[116] 	8996
scalar tree8_network.node[116].core_layer 	data[116] 	8978
scalar tree8_network.node[116].content_store 	p_hit[116] 	0
scalar tree8_network.node[116].content_store 	hits[116] 	0
scalar tree8_network.node[116].content_store 	misses[116] 	8996
scalar tree8_network.node[116].content_store 	decision_yes[116] 	0
scalar tree8_network.node[116].content_store 	decision_no[116] 	8978
scalar tree8_network.node[116].content_store 	decision_ratio[116] 	0
scalar tree8_network.node[117].core_layer 	interests[117] 	8993
scalar tree8_network.node[117].core_layer 	data[117] 	8964
scalar tree8_network.node[117].content_store 	p_hit[117] 	0
scalar tree8_network.node[117].content_store 	hits[117] 	0
scalar tree8_network.node[117].content_store 	misses[117] 	8993
scalar tree8_network.node[117].content_store 	decision_yes[117] 	0
scalar tree8_network.node[117].content_store 	decision_no[117] 	8964
scalar tree8_network.node[117].content_store 	decision_ratio[117] 	0
scalar tree8_network.node[118].core_layer 	interests[118] 	8994
scalar tree8_network.node[118].core_layer 	data[118] 	8971
scalar tree8_network.node[118].content_store 	p_hit[118] 	0
scalar tree8_network.node[118].content_store 	hits[118] 	0
scalar tree8_network.node[118].content_store 	misses[118] 	8994
scalar tree8_network.node[118].content_store 	decision_yes[118] 	0
scalar tree8_network.node[118].content_store 	decision_no[118] 	8971
scalar tree8_network.node[118].content_store 	decision_ratio[118] 	0
scalar tree8_network.node[119].core_layer 	interests[119] 	9161
scalar tree8_network.node[119].core_layer 	data[119] 	9135
scalar tree8_network.node[119].content_store 	p_hit[119] 	0
scalar tree8_network.node[119].content_store 	hits[119] 	0
scalar tree8_network.node[119].content_store 	misses[119] 	9161
scalar tree8_network.node[119].content_store 	decision_yes[119] 	0
scalar tree8_network.node[119].content_store 	decision_no[119] 	9135
scalar tree8_network.node[119].content_store 	decision_ratio[119] 	0
scalar tree8_network.node[120].core_layer 	interests[120] 	9020
scalar tree8_network.node[120].core_layer 	data[120] 	8988
scalar tree8_network.node[120].content_store 	p_hit[120] 	0
scalar tree8_network.node[120].content_store 	hits[120] 	0
scalar tree8_network.node[120].content_store 	misses[120] 	9020
scalar tree8_network.node[120].content_store 	decision_yes[120] 	0
scalar tree8_network.node[120].content_store 	decision_no[120] 	8988
scalar tree8_network.node[120].content_store 	decision_ratio[120] 	0
scalar tree8_network.node[121].core_layer 	interests[121] 	8838
scalar tree8_network.node[121].core_layer 	data[121] 	8809
scalar tree8_network.node[121].content_store 	p_hit[121] 	0
scalar tree8_network.node[121].content_store 	hits[121] 	0
scalar tree8_network.node[121].content_store 	misses[121] 	8838
scalar tree8_network.node[121].content_store 	decision_yes[121] 	0
scalar tree8_network.node[121].content_store 	decision_no[121] 	8809
scalar tree8_network.node[121].content_store 	decision_ratio[121] 	0
scalar tree8_network.node[122].core_layer 	interests[122] 	9118
scalar tree8_network.node[122].core_layer 	data[122] 	9094
scalar tree8_network.node[122].content_store 	p_hit[122] 	0
scalar tree8_network.node[122].content_store 	hits[122] 	0
scalar tree8_network.node[122].content_store 	misses[122] 	9118
scalar tree8_network.node[122].content_store 	decision_yes[122] 	0
scalar tree8_network.node[122].content_store 	decision_no[122] 	9094
scalar tree8_network.node[122].content_store 	decision_ratio[122] 	0
scalar tree8_network.node[123].core_layer 	interests[123] 	8966
scalar tree8_network.node[123].core_layer 	data[123] 	8942
scalar tree8_network.node[123].content_store 	p_hit[123] 	0
scalar tree8_network.node[123].content_store 	hits[123] 	0
scalar tree8_network.node[123].content_store 	misses[123] 	8966
scalar tree8_network.node[123].content_store 	decision_yes[123] 	0
scalar tree8_network.node[123].content_store 	decision_no[123] 	8942
scalar tree8_network.node[123].content_store 	decision_ratio[123] 	0
scalar tree8_network.node[124].core_layer 	interests[124] 	8999
scalar tree8_network.node[124].core_layer 	data[124] 	8957
scalar tree8_network.node[124].content_store 	p_hit[124] 	0
scalar tree8_network.node[124].content_store 	hits[124] 	0
scalar tree8_network.node[124].content_store 	misses[124] 	8999
scalar tree8_network.node[124].content_store 	decision_yes[124] 	0
scalar tree8_network.node[124].content_store 	decision_no[124] 	8957
scalar tree8_network.node[124].content_store 	decision_ratio[124] 	0
scalar tree8_network.node[125].core_layer 	interests[125] 	9144
scalar tree8_network.node[125].core_layer 	data[125] 	9111
scalar tree8_network.node[125].content_store 	p_hit[125] 	0
scalar tree8_network.node[125].content_store 	hits[125] 	0
scalar tree8_network.node[125].content_store 	misses[125] 	9144
scalar tree8_network.node[125].content_store 	decision_yes[125] 	0
scalar tree8_network.node[125].content_store 	decision_no[125] 	9111
scalar tree8_network.node[125].content_store 	decision_ratio[125] 	0
scalar tree8_network.node[126].core_layer 	interests[126] 	9039
scalar tree8_network.node[126].core_layer 	data[126] 	9006
scalar tree8_network.node[126].content_store 	p_hit[126] 	0
scalar tree8_network.node[126].content_store 	hits[126] 	0
scalar tree8_network.node[126].content_store 	misses[126] 	9039
scalar tree8_network.node[126].content_store 	decision_yes[126] 	0
scalar tree8_network.node[126].content_store 	decision_no[126] 	9006
scalar tree8_network.node[126].content_store 	decision_ratio[126] 	0
scalar tree8_network.node[127].core_layer 	interests[127] 	9136
scalar tree8_network.node[127].core_layer 	data[127] 	9109
scalar tree8_network.node[127].content_store 	p_hit[127] 	0
scalar tree8_network.node[127].content_store 	hits[127] 	0
scalar tree8_network.node[127].content_store 	misses[127] 	9136
scalar tree8_network.node[127].content_store 	decision_yes[127] 	0
scalar tree8_network.node[127].content_store 	decision_no[127] 	9109
scalar tree8_network.node[127].content_store 	decision_ratio[127] 	0
scalar tree8_network.node[128].core_layer 	interests[128] 	9052
scalar tree8_network.node[128].core_layer 	data[128] 	9018
scalar tree8_network.node[128].content_store 	p_hit[128] 	0
scalar tree8_network.node[128].content_store 	hits[128] 	0
scalar tree8_network.node[128].content_store 	misses[128] 	9052
scalar tree8_network.node[128].content_store 	decision_yes[128] 	0
scalar tree8_network.node[128].content_store 	decision_no[128] 	9018
scalar tree8_network.node[128].content_store 	decision_ratio[128] 	0
scalar tree8_network.node[129].core_layer 	interests[129] 	8907
scalar tree8_network.node[129].core_layer 	data[129] 	8883
scalar tree8_network.node[129].content_store 	p_hit[129] 	0
scalar tree8_network.node[129].content_store 	hits[129] 	0
scalar tree8_network.node[129].content_store 	misses[129] 	8907
scalar tree8_network.node[129].content_store 	decision_yes[129] 	0
scalar tree8_network.node[129].content_store 	decision_no[129] 	8883
scalar tree8_network.node[129].content_store 	decision_ratio[129] 	0
scalar tree8_network.node[130].core_layer 	interests[130] 	8931
scalar tree8_network.node[130].core_layer 	data[130] 	8897
scalar tree8_network.node[130].content_store 	p_hit[130] 	0
scalar tree8_network.node[130].content_store 	hits[130] 	0
scalar tree8_network.node[130].content_store 	misses[130] 	8931
scalar tree8_network.node[130].content_store 	decision_yes[130] 	0
scalar tree8_network.node[130].content_store 	decision_no[130] 	8897
scalar tree8_network.node[130].content_store 	decision_ratio[130] 	0
scalar tree8_network.node[131].core_layer 	interests[131] 	9001
scalar tree8_network.node[131].core_layer 	data[131] 	8973
scalar tree8_network.node[131].content_store 	p_hit[131] 	0
scalar tree8_network.node[131].content_store 	hits[131] 	0
scalar tree8_network.node[131].content_store 	misses[131] 	9001
scalar tree8_network.node[131].content_store 	decision_yes[131] 	0
scalar tree8_network.node[131].content_store 	decision_no[131] 	8973
scalar tree8_network.node[131].content_store 	decision_ratio[131] 	0
scalar tree8_network.node[132].core_layer 	interests[132] 	8957
scalar tree8_network.node[132].core_layer 	data[132] 	8931
scalar tree8_network.node[132].content_store 	p_hit[132] 	0
scalar tree8_network.node[132].content_store 	hits[132] 	0
scalar tree8_network.node[132].content_store 	misses[132] 	8957
scalar tree8_network.node[132].content_store 	decision_yes[132] 	0
scalar tree8_network.node[132].content_store 	decision_no[132] 	8931
scalar tree8_network.node[132].content_store 	decision_ratio[132] 	0
scalar tree8_network.node[133].core_layer 	interests[133] 	9125
scalar tree8_network.node[133].core_layer 	data[133] 	9096
scalar tree8_network.node[133].content_store 	p_hit[133] 	0
scalar tree8_network.node[133].content_store 	hits[133] 	0
scalar tree8_network.node[133].content_store 	misses[133] 	9125
scalar tree8_network.node[133].content_store 	decision_yes[133] 	0
scalar tree8_network.node[133].content_store 	decision_no[133] 	9096
scalar tree8_network.node[133].content_store 	decision_ratio[133] 	0
scalar tree8_network.node[134].core_layer 	interests[134] 	9039
scalar tree8_network.node[134].core_layer 	data[134] 	9014
scalar tree8_network.node[134].content_store 	p_hit[134] 	0
scalar tree8_network.node[134].content_store 	hits[134] 	0
scalar tree8_network.node[134].content_store 	misses[134] 	9039
scalar tree8_network.node[134].content_store 	decision_yes[134] 	0
scalar tree8_network.node[134].content_store 	decision_no[134] 	9014
scalar tree8_network.node[134].content_store 	decision_ratio[134] 	0
scalar tree8_network.node[135].core_layer 	interests[135] 	9222
scalar tree8_network.node[135].core_layer 	data[135] 	9197
scalar tree8_network.node[135].content_store 	p_hit[135] 	0
scalar tree8_network.node[135].content_store 	hits[135] 	0
scalar tree8_network.node[135].content_store 	misses[135] 	9222
scalar tree8_network.node[135].content_store 	decision_yes[135] 	0
scalar tree8_network.node[135].content_store 	decision_no[135] 	9197
scalar tree8_network.node[135].content_store 	decision_ratio[135] 	0
scalar tree8_network.node[136].core_layer 	interests[136] 	8954
scalar tree8_network.node[136].core_layer 	data[136] 	8925
scalar tree8_network.node[136].content_store 	p_hit[136] 	0
scalar tree8_network.node[136].content_store 	hits[136] 	0
scalar tree8_network.node[136].content_store 	misses[136] 	8954
scalar tree8_network.node[136].content_store 	decision_yes[136] 	0
scalar tree8_network.node[136].content_store 	decision_no[136] 	8925
scalar tree8_network.node[136].content_store 	decision_ratio[136] 	0
scalar tree8_network.node[137].core_layer 	interests[137] 	8933
scalar tree8_network.node[137].core_layer 	data[137] 	8903
scalar tree8_network.node[137].content_store 	p_hit[137] 	0
scalar tree8_network.node[137].content_store 	hits[137] 	0
scalar tree8_network.node[137].content_store 	misses[137] 	8933
scalar tree8_network.node[137].content_store 	decision_yes[137] 	0
scalar tree8_network.node[137].content_store 	decision_no[137] 	8903
scalar tree8_network.node[137].content_store 	decision_ratio[137] 	0
scalar tree8_network.node[138].core_layer 	interests[138] 	8873
scalar tree8_network.node[138].core_layer 	data[138] 	8853
scalar tree8_network.node[138].content_store 	p_hit[138] 	0
scalar tree8_network.node[138].content_store 	hits[138] 	0
scalar tree8_network.node[138].content_store 	misses[138] 	8873
scalar tree8_network.node[138].content_store 	decision_yes[138] 	0
scalar tree8_network.node[138].content_store 	decision_no[138] 	8853
scalar tree8_network.node[138].content_store 	decision_ratio[138] 	0
scalar tree8_network.node[139].core_layer 	interests[139] 	9042
scalar tree8_network.node[139].core_layer 	data[139] 	9012
scalar tree8_network.node[139].content_store 	p_hit[139] 	0
scalar tree8_network.node[139].content_store 	hits[139] 	0
scalar tree8_network.node[139].content_store 	misses[139] 	9042
scalar tree8_network.node[139].content_store 	decision_yes[139] 	0
scalar tree8_network.node[139].content_store 	decision_no[139] 	9012
scalar tree8_network.node[139].content_store 	decision_ratio[139] 	0
[...]
scalar tree8_network.client[46] 	downloads[46] 	9015
scalar tree8_network.client[46] 	avg_time[46] 	0.002074602038
scalar tree8_network.client[47] 	hdistance[47] 	1.0466153674585
scalar tree8_network.client[47] 	downloads[47] 	8967
scalar tree8_network.client[47] 	avg_time[47] 	0.002065387693
scalar tree8_network.client[48] 	hdistance[48] 	1.0473346604733
scalar tree8_network.client[48] 	downloads[48] 	9042
scalar tree8_network.client[48] 	avg_time[48] 	0.002067362701
scalar tree8_network.client[49] 	hdistance[49] 	1.0506415351425
scalar tree8_network.client[49] 	downloads[49] 	8807
scalar tree8_network.client[49] 	avg_time[49] 	0.002070584816
scalar tree8_network.client[50] 	hdistance[50] 	1.0494742667405
scalar tree8_network.client[50] 	downloads[50] 	9035
scalar tree8_network.client[50] 	avg_time[50] 	0.002070006054
scalar tree8_network.client[51] 	hdistance[51] 	1.0492934238344
scalar tree8_network.client[51] 	downloads[51] 	8987
scalar tree8_network.client[51] 	avg_time[51] 	0.00206954797
scalar tree8_network.client[52] 	hdistance[52] 	1.0539997768604
scalar tree8_network.client[52] 	downloads[52] 	8963
scalar tree8_network.client[52] 	avg_time[52] 	0.002076047927
scalar tree8_network.client[53] 	hdistance[53] 	1.0504724847137
scalar tree8_network.client[53] 	downloads[53] 	8995
scalar tree8_network.client[53] 	avg_time[53] 	0.002071666963
scalar tree8_network.client[54] 	hdistance[54] 	1.0525735699328
scalar tree8_network.client[54] 	downloads[54] 	9073
scalar tree8_network.client[54] 	avg_time[54] 	0.002075574349
scalar tree8_network.client[55] 	hdistance[55] 	1.0466115702479
scalar tree8_network.client[55] 	downloads[55] 	9075
scalar tree8_network.client[55] 	avg_time[55] 	0.002065356843
scalar tree8_network.client[56] 	hdistance[56] 	1.0526084568918
scalar tree8_network.client[56] 	downloads[56] 	9105
scalar tree8_network.client[56] 	avg_time[56] 	0.002073871053
scalar tree8_network.client[57] 	hdistance[57] 	1.0497737556561
scalar tree8_network.client[57] 	downloads[57] 	8840
scalar tree8_network.client[57] 	avg_time[57] 	0.002071206922
scalar tree8_network.client[58] 	hdistance[58] 	1.0585676037483
scalar tree8_network.client[58] 	downloads[58] 	8964
scalar tree8_network.client[58] 	avg_time[58] 	0.002080973481
scalar tree8_network.client[59] 	hdistance[59] 	1.0532918840902
scalar tree8_network.client[59] 	downloads[59] 	9007
scalar tree8_network.client[59] 	avg_time[59] 	0.002073326478
scalar tree8_network.client[60] 	hdistance[60] 	1.0481489893255
scalar tree8_network.client[60] 	downloads[60] 	8806
scalar tree8_network.client[60] 	avg_time[60] 	0.002067758209
scalar tree8_network.client[61] 	hdistance[61] 	1.0500670540903
scalar tree8_network.client[61] 	downloads[61] 	8948
scalar tree8_network.client[61] 	avg_time[61] 	0.002070875423
scalar tree8_network.client[62] 	hdistance[62] 	1.0501653803749
scalar tree8_network.client[62] 	downloads[62] 	9070
scalar tree8_network.client[62] 	avg_time[62] 	0.002070504408
scalar tree8_network.client[63] 	hdistance[63] 	1.0520763935154
scalar tree8_network.client[63] 	downloads[63] 	9006
scalar tree8_network.client[63] 	avg_time[63] 	0.002075966189
scalar tree8_network.client[64] 	hdistance[64] 	1.0523930584724
scalar tree8_network.client[64] 	downloads[64] 	9047
scalar tree8_network.client[64] 	avg_time[64] 	0.00207296903
scalar tree8_network.client[65] 	hdistance[65] 	1.0501275368748
scalar tree8_network.client[65] 	downloads[65] 	9017
scalar tree8_network.client[65] 	avg_time[65] 	0.002071163701
scalar tree8_network.client[66] 	hdistance[66] 	1.0533741660286
scalar tree8_network.client[66] 	downloads[66] 	9143
scalar tree8_network.client[66] 	avg_time[66] 	0.002075900818
scalar tree8_network.client[67] 	hdistance[67] 	1.0501718213058
scalar tree8_network.client[67] 	downloads[67] 	8730
scalar tree8_network.client[67] 	avg_time[67] 	0.002073386363
scalar tree8_network.client[68] 	hdistance[68] 	1.0501657458564
scalar tree8_network.client[68] 	downloads[68] 	9050
scalar tree8_network.client[68] 	avg_time[68] 	0.002070611716
scalar tree8_network.client[69] 	hdistance[69] 	1.0471499723298
scalar tree8_network.client[69] 	downloads[69] 	9035
scalar tree8_network.client[69] 	avg_time[69] 	0.002065622039
scalar tree8_network.client[70] 	hdistance[70] 	1.0484611080022
scalar tree8_network.client[70] 	downloads[70] 	8935
scalar tree8_network.client[70] 	avg_time[70] 	0.002067843063
scalar tree8_network.client[71] 	hdistance[71] 	1.0476352115863
scalar tree8_network.client[71] 	downloads[71] 	8838
scalar tree8_network.client[71] 	avg_time[71] 	0.002066316082
scalar tree8_network.client[72] 	hdistance[72] 	1.0487696741299
scalar tree8_network.client[72] 	downloads[72] 	9022
scalar tree8_network.client[72] 	avg_time[72] 	0.002072406715
scalar tree8_network.client[73] 	hdistance[73] 	1.0563396057348
scalar tree8_network.client[73] 	downloads[73] 	8928
scalar tree8_network.client[73] 	avg_time[73] 	0.002080550161
scalar tree8_network.client[74] 	hdistance[74] 	1.0512848792324
scalar tree8_network.client[74] 	downloads[74] 	9067
scalar tree8_network.client[74] 	avg_time[74] 	0.002073150869
scalar tree8_network.client[75] 	hdistance[75] 	1.051671388102
scalar tree8_network.client[75] 	downloads[75] 	8825
scalar tree8_network.client[75] 	avg_time[75] 	0.002074992431
scalar tree8_network.client[76] 	hdistance[76] 	1.0517088326676
scalar tree8_network.client[76] 	downloads[76] 	9012
scalar tree8_network.client[76] 	avg_time[76] 	0.00207269146
scalar tree8_network.client[77] 	hdistance[77] 	1.0518518518518
scalar tree8_network.client[77] 	downloads[77] 	8910
scalar tree8_network.client[77] 	avg_time[77] 	0.002073663419
scalar tree8_network.client[78] 	hdistance[78] 	1.057234584302
scalar tree8_network.client[78] 	downloads[78] 	9033
scalar tree8_network.client[78] 	avg_time[78] 	0.00208207353
scalar tree8_network.client[79] 	hdistance[79] 	1.054298138031
scalar tree8_network.client[79] 	downloads[79] 	8969
scalar tree8_network.client[79] 	avg_time[79] 	0.002077284237
scalar tree8_network.client[80] 	hdistance[80] 	1.0526491540516
scalar tree8_network.client[80] 	downloads[80] 	8984
scalar tree8_network.client[80] 	avg_time[80] 	0.002073128068
scalar tree8_network.client[81] 	hdistance[81] 	1.0508644729504
scalar tree8_network.client[81] 	downloads[81] 	8965
scalar tree8_network.client[81] 	avg_time[81] 	0.002070707762
scalar tree8_network.client[82] 	hdistance[82] 	1.0409791279642
scalar tree8_network.client[82] 	downloads[82] 	9151
scalar tree8_network.client[82] 	avg_time[82] 	0.002058734545
scalar tree8_network.client[83] 	hdistance[83] 	1.0490797546012
scalar tree8_network.client[83] 	downloads[83] 	8802
scalar tree8_network.client[83] 	avg_time[83] 	0.002069858746
scalar tree8_network.client[84] 	hdistance[84] 	1.0464301357862
scalar tree8_network.client[84] 	downloads[84] 	9132
scalar tree8_network.client[84] 	avg_time[84] 	0.002063633844
scalar tree8_network.client[85] 	hdistance[85] 	1.0418865435356
scalar tree8_network.client[85] 	downloads[85] 	9096
scalar tree8_network.client[85] 	avg_time[85] 	0.002058798881
scalar tree8_network.client[86] 	hdistance[86] 	1.0504313205043
scalar tree8_network.client[86] 	downloads[86] 	9042
scalar tree8_network.client[86] 	avg_time[86] 	0.002069621856
scalar tree8_network.client[87] 	hdistance[87] 	1.0514591222989
scalar tree8_network.client[87] 	downloads[87] 	8978
scalar tree8_network.client[87] 	avg_time[87] 	0.002074649178
scalar tree8_network.client[88] 	hdistance[88] 	1.0552680832324
scalar tree8_network.client[88] 	downloads[88] 	9083
scalar tree8_network.client[88] 	avg_time[88] 	0.002078162533
scalar tree8_network.client[89] 	hdistance[89] 	1.0474194971328
scalar tree8_network.client[89] 	downloads[89] 	9068
scalar tree8_network.client[89] 	avg_time[89] 	0.002064850033
scalar tree8_network.client[90] 	hdistance[90] 	1.0438596491228
scalar tree8_network.client[90] 	downloads[90] 	9006
scalar tree8_network.client[90] 	avg_time[90] 	0.002062543574
scalar tree8_network.client[91] 	hdistance[91] 	1.0537393640842
scalar tree8_network.client[91] 	downloads[91] 	8932
scalar tree8_network.client[91] 	avg_time[91] 	0.002078428079
scalar tree8_network.client[92] 	hdistance[92] 	1.0505289218996
scalar tree8_network.client[92] 	downloads[92] 	8886
scalar tree8_network.client[92] 	avg_time[92] 	0.002073491001
scalar tree8_network.client[93] 	hdistance[93] 	1.0496647346289
scalar tree8_network.client[93] 	downloads[93] 	8799
scalar tree8_network.client[93] 	avg_time[93] 	0.00207121648
scalar tree8_network.client[94] 	hdistance[94] 	1.0511654349062
scalar tree8_network.client[94] 	downloads[94] 	8795
scalar tree8_network.client[94] 	avg_time[94] 	0.002072854475
scalar tree8_network.client[95] 	hdistance[95] 	1.0513450161848
scalar tree8_network.client[95] 	downloads[95] 	8959
scalar tree8_network.client[95] 	avg_time[95] 	0.002073457673
scalar tree8_network.client[96] 	hdistance[96] 	1.0522824375984
scalar tree8_network.client[96] 	downloads[96] 	8894
scalar tree8_network.client[96] 	avg_time[96] 	0.002074410236
scalar tree8_network.client[97] 	hdistance[97] 	1.053530124463
scalar tree8_network.client[97] 	downloads[97] 	9079
scalar tree8_network.client[97] 	avg_time[97] 	0.002078277667
scalar tree8_network.client[98] 	hdistance[98] 	1.0540451293341
scalar tree8_network.client[98] 	downloads[98] 	9085
scalar tree8_network.client[98] 	avg_time[98] 	0.002076201224
scalar tree8_network.client[99] 	hdistance[99] 	1.0518485121731
scalar tree8_network.client[99] 	downloads[99] 	8872
scalar tree8_network.client[99] 	avg_time[99] 	0.002073387183
scalar tree8_network.client[100] 	hdistance[100] 	1.0503460593883
scalar tree8_network.client[100] 	downloads[100] 	8958
scalar tree8_network.client[100] 	avg_time[100] 	0.002071855996
scalar tree8_network.client[101] 	hdistance[101] 	1.0524319500223
scalar tree8_network.client[101] 	downloads[101] 	8964
scalar tree8_network.client[101] 	avg_time[101] 	0.002072629927
scalar tree8_network.client[102] 	hdistance[102] 	1.0541228555617
scalar tree8_network.client[102] 	downloads[102] 	9035
scalar tree8_network.client[102] 	avg_time[102] 	0.002077977154
scalar tree8_network.client[103] 	hdistance[103] 	1.0478589420655
scalar tree8_network.client[103] 	downloads[103] 	9131
scalar tree8_network.client[103] 	avg_time[103] 	0.002066353373
scalar tree8_network.client[104] 	hdistance[104] 	1.0504668741663
scalar tree8_network.client[104] 	downloads[104] 	8996
scalar tree8_network.client[104] 	avg_time[104] 	0.002072123477
scalar tree8_network.client[105] 	hdistance[105] 	1.0459299681673
scalar tree8_network.client[105] 	downloads[105] 	8796
scalar tree8_network.client[105] 	avg_time[105] 	0.00206515737
scalar tree8_network.client[106] 	hdistance[106] 	1.0531242950598
scalar tree8_network.client[106] 	downloads[106] 	8866
scalar tree8_network.client[106] 	avg_time[106] 	0.002076931537
scalar tree8_network.client[107] 	hdistance[107] 	1.053345089827
scalar tree8_network.client[107] 	downloads[107] 	9073
scalar tree8_network.client[107] 	avg_time[107] 	0.002078494924
scalar tree8_network.client[108] 	hdistance[108] 	1.049427968455
scalar tree8_network.client[108] 	downloads[108] 	9003
scalar tree8_network.client[108] 	avg_time[108] 	0.002069445193
scalar tree8_network.client[109] 	hdistance[109] 	1.0487442922374
scalar tree8_network.client[109] 	downloads[109] 	8760
scalar tree8_network.client[109] 	avg_time[109] 	0.00206913162
scalar tree8_network.client[110] 	hdistance[110] 	1.0530732345248
scalar tree8_network.client[110] 	downloads[110] 	9176
scalar tree8_network.client[110] 	avg_time[110] 	0.002075170908
scalar tree8_network.client[111] 	hdistance[111] 	1.0485232067511
scalar tree8_network.client[111] 	downloads[111] 	9006
scalar tree8_network.client[111] 	avg_time[111] 	0.002067764026
scalar tree8_network.client[112] 	hdistance[112] 	1.0486335750139
scalar tree8_network.client[112] 	downloads[112] 	8965
scalar tree8_network.client[112] 	avg_time[112] 	0.002067712062
scalar tree8_network.client[113] 	hdistance[113] 	1.0509905447996
scalar tree8_network.client[113] 	downloads[113] 	8884
scalar tree8_network.client[113] 	avg_time[113] 	0.002072386942
scalar tree8_network.client[114] 	hdistance[114] 	1.0482233502538
scalar tree8_network.client[114] 	downloads[114] 	9062
scalar tree8_network.client[114] 	avg_time[114] 	0.002070168763
scalar tree8_network.client[115] 	hdistance[115] 	1.0523229589535
scalar tree8_network.client[115] 	downloads[115] 	8868
scalar tree8_network.client[115] 	avg_time[115] 	0.002074927227
scalar tree8_network.client[116] 	hdistance[116] 	1.0540209400757
scalar tree8_network.client[116] 	downloads[116] 	8978
scalar tree8_network.client[116] 	avg_time[116] 	0.002077511167
scalar tree8_network.client[117] 	hdistance[117] 	1.045292280232
scalar tree8_network.client[117] 	downloads[117] 	8964
scalar tree8_network.client[117] 	avg_time[117] 	0.002063488489
scalar tree8_network.client[118] 	hdistance[118] 	1.0459257607847
scalar tree8_network.client[118] 	downloads[118] 	8971
scalar tree8_network.client[118] 	avg_time[118] 	0.002065718532
scalar tree8_network.client[119] 	hdistance[119] 	1.047728516694
scalar tree8_network.client[119] 	downloads[119] 	9135
scalar tree8_network.client[119] 	avg_time[119] 	0.002067463013
scalar tree8_network.client[120] 	hdistance[120] 	1.0498442367601
scalar tree8_network.client[120] 	downloads[120] 	8988
scalar tree8_network.client[120] 	avg_time[120] 	0.002069360861
scalar tree8_network.client[121] 	hdistance[121] 	1.0576682937904
scalar tree8_network.client[121] 	downloads[121] 	8809
scalar tree8_network.client[121] 	avg_time[121] 	0.002080595074
scalar tree8_network.client[122] 	hdistance[122] 	1.0542115680669
scalar tree8_network.client[122] 	downloads[122] 	9094
scalar tree8_network.client[122] 	avg_time[122] 	0.002076412696
scalar tree8_network.client[123] 	hdistance[123] 	1.0553567434578
scalar tree8_network.client[123] 	downloads[123] 	8942
scalar tree8_network.client[123] 	avg_time[123] 	0.002077303092
scalar tree8_network.client[124] 	hdistance[124] 	1.053142793346
scalar tree8_network.client[124] 	downloads[124] 	8957
scalar tree8_network.client[124] 	avg_time[124] 	0.002073183156
scalar tree8_network.client[125] 	hdistance[125] 	1.0499396334102
scalar tree8_network.client[125] 	downloads[125] 	9111
scalar tree8_network.client[125] 	avg_time[125] 	0.002072126769
scalar tree8_network.client[126] 	hdistance[126] 	1.0486342438374
scalar tree8_network.client[126] 	downloads[126] 	9006
scalar tree8_network.client[126] 	avg_time[126] 	0.002065452391
scalar tree8_network.client[127] 	hdistance[127] 	1.0497310352399
scalar tree8_network.client[127] 	downloads[127] 	9109
scalar tree8_network.client[127] 	avg_time[127] 	0.002071117904
scalar tree8_network.client[128] 	hdistance[128] 	1.0559991128853
scalar tree8_network.client[128] 	downloads[128] 	9018
scalar tree8_network.client[128] 	avg_time[128] 	0.002079460483
scalar tree8_network.client[129] 	hdistance[129] 	1.0541483732973
scalar tree8_network.client[129] 	downloads[129] 	8883
scalar tree8_network.client[129] 	avg_time[129] 	0.002076046265
scalar tree8_network.client[130] 	hdistance[130] 	1.0481061031808
scalar tree8_network.client[130] 	downloads[130] 	8897
scalar tree8_network.client[130] 	avg_time[130] 	0.002068789411
scalar tree8_network.client[131] 	hdistance[131] 	1.0511534603811
scalar tree8_network.client[131] 	downloads[131] 	8973
scalar tree8_network.client[131] 	avg_time[131] 	0.002071955441
scalar tree8_network.client[132] 	hdistance[132] 	1.0496025081178
scalar tree8_network.client[132] 	downloads[132] 	8931
scalar tree8_network.client[132] 	avg_time[132] 	0.002070296051
scalar tree8_network.client[133] 	hdistance[133] 	1.0437554969217
scalar tree8_network.client[133] 	downloads[133] 	9096
scalar tree8_network.client[133] 	avg_time[133] 	0.002061257292
scalar tree8_network.client[134] 	hdistance[134] 	1.0498114044819
scalar tree8_network.client[134] 	downloads[134] 	9014
scalar tree8_network.client[134] 	avg_time[134] 	0.00207039716
scalar tree8_network.client[135] 	hdistance[135] 	1.0478416875068
scalar tree8_network.client[135] 	downloads[135] 	9197
scalar tree8_network.client[135] 	avg_time[135] 	0.002068704086
scalar tree8_network.client[136] 	hdistance[136] 	1.04918767507
scalar tree8_network.client[136] 	downloads[136] 	8925
scalar tree8_network.client[136] 	avg_time[136] 	0.002069623709
scalar tree8_network.client[137] 	hdistance[137] 	1.0504324385039
scalar tree8_network.client[137] 	downloads[137] 	8903
scalar tree8_network.client[137] 	avg_time[137] 	0.002070583889
scalar tree8_network.client[138] 	hdistance[138] 	1.0533152603637
scalar tree8_network.client[138] 	downloads[138] 	8853
scalar tree8_network.client[138] 	avg_time[138] 	0.002076117233
scalar tree8_network.client[139] 	hdistance[139] 	1.0452729693742
scalar tree8_network.client[139] 	downloads[139] 	9012
scalar tree8_network.client[139] 	avg_time[139] 	0.002066795925
scalar tree8_network.client[140] 	hdistance[140] 	1.0423757090424
scalar tree8_network.client[140] 	downloads[140] 	8991
scalar tree8_network.client[140] 	avg_time[140] 	0.002058711044
scalar tree8_network.client[141] 	hdistance[141] 	1.0546918689185
scalar tree8_network.client[141] 	downloads[141] 	8941
scalar tree8_network.client[141] 	avg_time[141] 	0.002074470369
scalar tree8_network.client[142] 	hdistance[142] 	1.0485927880387
scalar tree8_network.client[142] 	downloads[142] 	9096
scalar tree8_network.client[142] 	avg_time[142] 	0.002069152501
scalar tree8_network.client[143] 	hdistance[143] 	1.0518857397902
scalar tree8_network.client[143] 	downloads[143] 	8962
scalar tree8_network.client[143] 	avg_time[143] 	0.002072655718
scalar tree8_network.client[144] 	hdistance[144] 	1.0581549326859
scalar tree8_network.client[144] 	downloads[144] 	9062
scalar tree8_network.client[144] 	avg_time[144] 	0.002083404668
scalar tree8_network.client[145] 	hdistance[145] 	1.0471339005822
scalar tree8_network.client[145] 	downloads[145] 	8932
scalar tree8_network.client[145] 	avg_time[145] 	0.002069533349
scalar tree8_network.client[146] 	hdistance[146] 	1.0433109816423
scalar tree8_network.client[146] 	downloads[146] 	9097
scalar tree8_network.client[146] 	avg_time[146] 	0.002060828665
scalar tree8_network.client[147] 	hdistance[147] 	1.047118074986
scalar tree8_network.client[147] 	downloads[147] 	8935
scalar tree8_network.client[147] 	avg_time[147] 	0.002065796482
scalar tree8_network.client[148] 	hdistance[148] 	1.0438184663537
scalar tree8_network.client[148] 	downloads[148] 	8946
scalar tree8_network.client[148] 	avg_time[148] 	0.002062373378
scalar tree8_network.client[149] 	hdistance[149] 	1.0516307352128
scalar tree8_network.client[149] 	downloads[149] 	9045
scalar tree8_network.client[149] 	avg_time[149] 	0.002072556171
scalar tree8_network.client[150] 	hdistance[150] 	1.0534214357711
scalar tree8_network.client[150] 	downloads[150] 	8929
scalar tree8_network.client[150] 	avg_time[150] 	0.002075881032
scalar tree8_network.client[151] 	hdistance[151] 	1.0438809261301
scalar tree8_network.client[151] 	downloads[151] 	9070
scalar tree8_network.client[151] 	avg_time[151] 	0.002061413322
scalar tree8_network.client[152] 	hdistance[152] 	1.0524432517052
scalar tree8_network.client[152] 	downloads[152] 	8943
scalar tree8_network.client[152] 	avg_time[152] 	0.002073836565
scalar tree8_network.client[153] 	hdistance[153] 	1.0462142456534
scalar tree8_network.client[153] 	downloads[153] 	8915
scalar tree8_network.client[153] 	avg_time[153] 	0.002064349814
scalar tree8_network.client[154] 	hdistance[154] 	1.0506526832534
scalar tree8_network.client[154] 	downloads[154] 	8963
scalar tree8_network.client[154] 	avg_time[154] 	0.002070788496
scalar tree8_network.client[155] 	hdistance[155] 	1.0545957918051
scalar tree8_network.client[155] 	downloads[155] 	9030
scalar tree8_network.client[155] 	avg_time[155] 	0.002077032101
